*SPEF "ieee 1481-1999"
*DESIGN "user_project_wrapper"
*DATE "11:11:11 Fri 11 11, 1111"
*VENDOR "OpenRCX"
*PROGRAM "Parallel Extraction"
*VERSION "1.0"
*DESIGN_FLOW "NAME_SCOPE LOCAL" "PIN_CAP NONE"
*DIVIDER /
*DELIMITER :
*BUS_DELIMITER []
*T_UNIT 1 NS
*C_UNIT 1 PF
*R_UNIT 1 OHM
*L_UNIT 1 HENRY

*NAME_MAP
*1 io_in[0]
*2 io_in[10]
*3 io_in[11]
*4 io_in[12]
*5 io_in[13]
*6 io_in[14]
*7 io_in[15]
*8 io_in[16]
*9 io_in[17]
*10 io_in[18]
*11 io_in[19]
*12 io_in[1]
*13 io_in[20]
*14 io_in[21]
*15 io_in[22]
*16 io_in[23]
*17 io_in[24]
*18 io_in[25]
*19 io_in[26]
*20 io_in[27]
*21 io_in[28]
*22 io_in[29]
*23 io_in[2]
*24 io_in[30]
*25 io_in[31]
*26 io_in[32]
*27 io_in[33]
*28 io_in[34]
*29 io_in[35]
*30 io_in[36]
*31 io_in[37]
*32 io_in[3]
*33 io_in[4]
*34 io_in[5]
*35 io_in[6]
*36 io_in[7]
*37 io_in[8]
*38 io_in[9]
*39 io_oeb[0]
*40 io_oeb[10]
*41 io_oeb[11]
*42 io_oeb[12]
*43 io_oeb[13]
*44 io_oeb[14]
*45 io_oeb[15]
*46 io_oeb[16]
*47 io_oeb[17]
*48 io_oeb[18]
*49 io_oeb[19]
*50 io_oeb[1]
*51 io_oeb[20]
*52 io_oeb[21]
*53 io_oeb[22]
*54 io_oeb[23]
*55 io_oeb[24]
*56 io_oeb[25]
*57 io_oeb[26]
*58 io_oeb[27]
*59 io_oeb[28]
*60 io_oeb[29]
*61 io_oeb[2]
*62 io_oeb[30]
*63 io_oeb[31]
*64 io_oeb[32]
*65 io_oeb[33]
*66 io_oeb[34]
*67 io_oeb[35]
*68 io_oeb[36]
*69 io_oeb[37]
*70 io_oeb[3]
*71 io_oeb[4]
*72 io_oeb[5]
*73 io_oeb[6]
*74 io_oeb[7]
*75 io_oeb[8]
*76 io_oeb[9]
*77 io_out[0]
*78 io_out[10]
*79 io_out[11]
*80 io_out[12]
*81 io_out[13]
*82 io_out[14]
*83 io_out[15]
*84 io_out[16]
*85 io_out[17]
*86 io_out[18]
*87 io_out[19]
*88 io_out[1]
*89 io_out[20]
*90 io_out[21]
*91 io_out[22]
*92 io_out[23]
*93 io_out[24]
*94 io_out[25]
*95 io_out[26]
*96 io_out[27]
*97 io_out[28]
*98 io_out[29]
*99 io_out[2]
*100 io_out[30]
*101 io_out[31]
*102 io_out[32]
*103 io_out[33]
*104 io_out[34]
*105 io_out[35]
*106 io_out[36]
*107 io_out[37]
*108 io_out[3]
*109 io_out[4]
*110 io_out[5]
*111 io_out[6]
*112 io_out[7]
*113 io_out[8]
*114 io_out[9]
*115 la_data_in[0]
*116 la_data_in[10]
*117 la_data_in[11]
*118 la_data_in[12]
*119 la_data_in[13]
*120 la_data_in[14]
*121 la_data_in[15]
*122 la_data_in[16]
*123 la_data_in[17]
*124 la_data_in[18]
*125 la_data_in[19]
*126 la_data_in[1]
*127 la_data_in[20]
*128 la_data_in[21]
*129 la_data_in[22]
*130 la_data_in[23]
*131 la_data_in[24]
*132 la_data_in[25]
*133 la_data_in[26]
*134 la_data_in[27]
*135 la_data_in[28]
*136 la_data_in[29]
*137 la_data_in[2]
*138 la_data_in[30]
*139 la_data_in[31]
*140 la_data_in[32]
*141 la_data_in[33]
*142 la_data_in[34]
*143 la_data_in[35]
*144 la_data_in[36]
*145 la_data_in[37]
*146 la_data_in[38]
*147 la_data_in[39]
*148 la_data_in[3]
*149 la_data_in[40]
*150 la_data_in[41]
*151 la_data_in[42]
*152 la_data_in[43]
*153 la_data_in[44]
*154 la_data_in[45]
*155 la_data_in[46]
*156 la_data_in[47]
*157 la_data_in[48]
*158 la_data_in[49]
*159 la_data_in[4]
*160 la_data_in[50]
*161 la_data_in[51]
*162 la_data_in[52]
*163 la_data_in[53]
*164 la_data_in[54]
*165 la_data_in[55]
*166 la_data_in[56]
*167 la_data_in[57]
*168 la_data_in[58]
*169 la_data_in[59]
*170 la_data_in[5]
*171 la_data_in[60]
*172 la_data_in[61]
*173 la_data_in[62]
*174 la_data_in[63]
*175 la_data_in[6]
*176 la_data_in[7]
*177 la_data_in[8]
*178 la_data_in[9]
*179 la_data_out[0]
*180 la_data_out[10]
*181 la_data_out[11]
*182 la_data_out[12]
*183 la_data_out[13]
*184 la_data_out[14]
*185 la_data_out[15]
*186 la_data_out[16]
*187 la_data_out[17]
*188 la_data_out[18]
*189 la_data_out[19]
*190 la_data_out[1]
*191 la_data_out[20]
*192 la_data_out[21]
*193 la_data_out[22]
*194 la_data_out[23]
*195 la_data_out[24]
*196 la_data_out[25]
*197 la_data_out[26]
*198 la_data_out[27]
*199 la_data_out[28]
*200 la_data_out[29]
*201 la_data_out[2]
*202 la_data_out[30]
*203 la_data_out[31]
*204 la_data_out[32]
*205 la_data_out[33]
*206 la_data_out[34]
*207 la_data_out[35]
*208 la_data_out[36]
*209 la_data_out[37]
*210 la_data_out[38]
*211 la_data_out[39]
*212 la_data_out[3]
*213 la_data_out[40]
*214 la_data_out[41]
*215 la_data_out[42]
*216 la_data_out[43]
*217 la_data_out[44]
*218 la_data_out[45]
*219 la_data_out[46]
*220 la_data_out[47]
*221 la_data_out[48]
*222 la_data_out[49]
*223 la_data_out[4]
*224 la_data_out[50]
*225 la_data_out[51]
*226 la_data_out[52]
*227 la_data_out[53]
*228 la_data_out[54]
*229 la_data_out[55]
*230 la_data_out[56]
*231 la_data_out[57]
*232 la_data_out[58]
*233 la_data_out[59]
*234 la_data_out[5]
*235 la_data_out[60]
*236 la_data_out[61]
*237 la_data_out[62]
*238 la_data_out[63]
*239 la_data_out[6]
*240 la_data_out[7]
*241 la_data_out[8]
*242 la_data_out[9]
*243 la_oenb[0]
*244 la_oenb[10]
*245 la_oenb[11]
*246 la_oenb[12]
*247 la_oenb[13]
*248 la_oenb[14]
*249 la_oenb[15]
*250 la_oenb[16]
*251 la_oenb[17]
*252 la_oenb[18]
*253 la_oenb[19]
*254 la_oenb[1]
*255 la_oenb[20]
*256 la_oenb[21]
*257 la_oenb[22]
*258 la_oenb[23]
*259 la_oenb[24]
*260 la_oenb[25]
*261 la_oenb[26]
*262 la_oenb[27]
*263 la_oenb[28]
*264 la_oenb[29]
*265 la_oenb[2]
*266 la_oenb[30]
*267 la_oenb[31]
*268 la_oenb[32]
*269 la_oenb[33]
*270 la_oenb[34]
*271 la_oenb[35]
*272 la_oenb[36]
*273 la_oenb[37]
*274 la_oenb[38]
*275 la_oenb[39]
*276 la_oenb[3]
*277 la_oenb[40]
*278 la_oenb[41]
*279 la_oenb[42]
*280 la_oenb[43]
*281 la_oenb[44]
*282 la_oenb[45]
*283 la_oenb[46]
*284 la_oenb[47]
*285 la_oenb[48]
*286 la_oenb[49]
*287 la_oenb[4]
*288 la_oenb[50]
*289 la_oenb[51]
*290 la_oenb[52]
*291 la_oenb[53]
*292 la_oenb[54]
*293 la_oenb[55]
*294 la_oenb[56]
*295 la_oenb[57]
*296 la_oenb[58]
*297 la_oenb[59]
*298 la_oenb[5]
*299 la_oenb[60]
*300 la_oenb[61]
*301 la_oenb[62]
*302 la_oenb[63]
*303 la_oenb[6]
*304 la_oenb[7]
*305 la_oenb[8]
*306 la_oenb[9]
*307 user_clock2
*308 user_irq[0]
*309 user_irq[1]
*310 user_irq[2]
*313 wb_clk_i
*314 wb_rst_i
*315 wbs_ack_o
*316 wbs_adr_i[0]
*317 wbs_adr_i[10]
*318 wbs_adr_i[11]
*319 wbs_adr_i[12]
*320 wbs_adr_i[13]
*321 wbs_adr_i[14]
*322 wbs_adr_i[15]
*323 wbs_adr_i[16]
*324 wbs_adr_i[17]
*325 wbs_adr_i[18]
*326 wbs_adr_i[19]
*327 wbs_adr_i[1]
*328 wbs_adr_i[20]
*329 wbs_adr_i[21]
*330 wbs_adr_i[22]
*331 wbs_adr_i[23]
*332 wbs_adr_i[24]
*333 wbs_adr_i[25]
*334 wbs_adr_i[26]
*335 wbs_adr_i[27]
*336 wbs_adr_i[28]
*337 wbs_adr_i[29]
*338 wbs_adr_i[2]
*339 wbs_adr_i[30]
*340 wbs_adr_i[31]
*341 wbs_adr_i[3]
*342 wbs_adr_i[4]
*343 wbs_adr_i[5]
*344 wbs_adr_i[6]
*345 wbs_adr_i[7]
*346 wbs_adr_i[8]
*347 wbs_adr_i[9]
*348 wbs_cyc_i
*349 wbs_dat_i[0]
*350 wbs_dat_i[10]
*351 wbs_dat_i[11]
*352 wbs_dat_i[12]
*353 wbs_dat_i[13]
*354 wbs_dat_i[14]
*355 wbs_dat_i[15]
*356 wbs_dat_i[16]
*357 wbs_dat_i[17]
*358 wbs_dat_i[18]
*359 wbs_dat_i[19]
*360 wbs_dat_i[1]
*361 wbs_dat_i[20]
*362 wbs_dat_i[21]
*363 wbs_dat_i[22]
*364 wbs_dat_i[23]
*365 wbs_dat_i[24]
*366 wbs_dat_i[25]
*367 wbs_dat_i[26]
*368 wbs_dat_i[27]
*369 wbs_dat_i[28]
*370 wbs_dat_i[29]
*371 wbs_dat_i[2]
*372 wbs_dat_i[30]
*373 wbs_dat_i[31]
*374 wbs_dat_i[3]
*375 wbs_dat_i[4]
*376 wbs_dat_i[5]
*377 wbs_dat_i[6]
*378 wbs_dat_i[7]
*379 wbs_dat_i[8]
*380 wbs_dat_i[9]
*381 wbs_dat_o[0]
*382 wbs_dat_o[10]
*383 wbs_dat_o[11]
*384 wbs_dat_o[12]
*385 wbs_dat_o[13]
*386 wbs_dat_o[14]
*387 wbs_dat_o[15]
*388 wbs_dat_o[16]
*389 wbs_dat_o[17]
*390 wbs_dat_o[18]
*391 wbs_dat_o[19]
*392 wbs_dat_o[1]
*393 wbs_dat_o[20]
*394 wbs_dat_o[21]
*395 wbs_dat_o[22]
*396 wbs_dat_o[23]
*397 wbs_dat_o[24]
*398 wbs_dat_o[25]
*399 wbs_dat_o[26]
*400 wbs_dat_o[27]
*401 wbs_dat_o[28]
*402 wbs_dat_o[29]
*403 wbs_dat_o[2]
*404 wbs_dat_o[30]
*405 wbs_dat_o[31]
*406 wbs_dat_o[3]
*407 wbs_dat_o[4]
*408 wbs_dat_o[5]
*409 wbs_dat_o[6]
*410 wbs_dat_o[7]
*411 wbs_dat_o[8]
*412 wbs_dat_o[9]
*413 wbs_sel_i[0]
*414 wbs_sel_i[1]
*415 wbs_sel_i[2]
*416 wbs_sel_i[3]
*417 wbs_stb_i
*418 wbs_we_i
*419 i_Rift2Wrap

*PORTS
io_in[0] I
io_in[10] I
io_in[11] I
io_in[12] I
io_in[13] I
io_in[14] I
io_in[15] I
io_in[16] I
io_in[17] I
io_in[18] I
io_in[19] I
io_in[1] I
io_in[20] I
io_in[21] I
io_in[22] I
io_in[23] I
io_in[24] I
io_in[25] I
io_in[26] I
io_in[27] I
io_in[28] I
io_in[29] I
io_in[2] I
io_in[30] I
io_in[31] I
io_in[32] I
io_in[33] I
io_in[34] I
io_in[35] I
io_in[36] I
io_in[37] I
io_in[3] I
io_in[4] I
io_in[5] I
io_in[6] I
io_in[7] I
io_in[8] I
io_in[9] I
io_oeb[0] O
io_oeb[10] O
io_oeb[11] O
io_oeb[12] O
io_oeb[13] O
io_oeb[14] O
io_oeb[15] O
io_oeb[16] O
io_oeb[17] O
io_oeb[18] O
io_oeb[19] O
io_oeb[1] O
io_oeb[20] O
io_oeb[21] O
io_oeb[22] O
io_oeb[23] O
io_oeb[24] O
io_oeb[25] O
io_oeb[26] O
io_oeb[27] O
io_oeb[28] O
io_oeb[29] O
io_oeb[2] O
io_oeb[30] O
io_oeb[31] O
io_oeb[32] O
io_oeb[33] O
io_oeb[34] O
io_oeb[35] O
io_oeb[36] O
io_oeb[37] O
io_oeb[3] O
io_oeb[4] O
io_oeb[5] O
io_oeb[6] O
io_oeb[7] O
io_oeb[8] O
io_oeb[9] O
io_out[0] O
io_out[10] O
io_out[11] O
io_out[12] O
io_out[13] O
io_out[14] O
io_out[15] O
io_out[16] O
io_out[17] O
io_out[18] O
io_out[19] O
io_out[1] O
io_out[20] O
io_out[21] O
io_out[22] O
io_out[23] O
io_out[24] O
io_out[25] O
io_out[26] O
io_out[27] O
io_out[28] O
io_out[29] O
io_out[2] O
io_out[30] O
io_out[31] O
io_out[32] O
io_out[33] O
io_out[34] O
io_out[35] O
io_out[36] O
io_out[37] O
io_out[3] O
io_out[4] O
io_out[5] O
io_out[6] O
io_out[7] O
io_out[8] O
io_out[9] O
la_data_in[0] I
la_data_in[10] I
la_data_in[11] I
la_data_in[12] I
la_data_in[13] I
la_data_in[14] I
la_data_in[15] I
la_data_in[16] I
la_data_in[17] I
la_data_in[18] I
la_data_in[19] I
la_data_in[1] I
la_data_in[20] I
la_data_in[21] I
la_data_in[22] I
la_data_in[23] I
la_data_in[24] I
la_data_in[25] I
la_data_in[26] I
la_data_in[27] I
la_data_in[28] I
la_data_in[29] I
la_data_in[2] I
la_data_in[30] I
la_data_in[31] I
la_data_in[32] I
la_data_in[33] I
la_data_in[34] I
la_data_in[35] I
la_data_in[36] I
la_data_in[37] I
la_data_in[38] I
la_data_in[39] I
la_data_in[3] I
la_data_in[40] I
la_data_in[41] I
la_data_in[42] I
la_data_in[43] I
la_data_in[44] I
la_data_in[45] I
la_data_in[46] I
la_data_in[47] I
la_data_in[48] I
la_data_in[49] I
la_data_in[4] I
la_data_in[50] I
la_data_in[51] I
la_data_in[52] I
la_data_in[53] I
la_data_in[54] I
la_data_in[55] I
la_data_in[56] I
la_data_in[57] I
la_data_in[58] I
la_data_in[59] I
la_data_in[5] I
la_data_in[60] I
la_data_in[61] I
la_data_in[62] I
la_data_in[63] I
la_data_in[6] I
la_data_in[7] I
la_data_in[8] I
la_data_in[9] I
la_data_out[0] O
la_data_out[10] O
la_data_out[11] O
la_data_out[12] O
la_data_out[13] O
la_data_out[14] O
la_data_out[15] O
la_data_out[16] O
la_data_out[17] O
la_data_out[18] O
la_data_out[19] O
la_data_out[1] O
la_data_out[20] O
la_data_out[21] O
la_data_out[22] O
la_data_out[23] O
la_data_out[24] O
la_data_out[25] O
la_data_out[26] O
la_data_out[27] O
la_data_out[28] O
la_data_out[29] O
la_data_out[2] O
la_data_out[30] O
la_data_out[31] O
la_data_out[32] O
la_data_out[33] O
la_data_out[34] O
la_data_out[35] O
la_data_out[36] O
la_data_out[37] O
la_data_out[38] O
la_data_out[39] O
la_data_out[3] O
la_data_out[40] O
la_data_out[41] O
la_data_out[42] O
la_data_out[43] O
la_data_out[44] O
la_data_out[45] O
la_data_out[46] O
la_data_out[47] O
la_data_out[48] O
la_data_out[49] O
la_data_out[4] O
la_data_out[50] O
la_data_out[51] O
la_data_out[52] O
la_data_out[53] O
la_data_out[54] O
la_data_out[55] O
la_data_out[56] O
la_data_out[57] O
la_data_out[58] O
la_data_out[59] O
la_data_out[5] O
la_data_out[60] O
la_data_out[61] O
la_data_out[62] O
la_data_out[63] O
la_data_out[6] O
la_data_out[7] O
la_data_out[8] O
la_data_out[9] O
la_oenb[0] I
la_oenb[10] I
la_oenb[11] I
la_oenb[12] I
la_oenb[13] I
la_oenb[14] I
la_oenb[15] I
la_oenb[16] I
la_oenb[17] I
la_oenb[18] I
la_oenb[19] I
la_oenb[1] I
la_oenb[20] I
la_oenb[21] I
la_oenb[22] I
la_oenb[23] I
la_oenb[24] I
la_oenb[25] I
la_oenb[26] I
la_oenb[27] I
la_oenb[28] I
la_oenb[29] I
la_oenb[2] I
la_oenb[30] I
la_oenb[31] I
la_oenb[32] I
la_oenb[33] I
la_oenb[34] I
la_oenb[35] I
la_oenb[36] I
la_oenb[37] I
la_oenb[38] I
la_oenb[39] I
la_oenb[3] I
la_oenb[40] I
la_oenb[41] I
la_oenb[42] I
la_oenb[43] I
la_oenb[44] I
la_oenb[45] I
la_oenb[46] I
la_oenb[47] I
la_oenb[48] I
la_oenb[49] I
la_oenb[4] I
la_oenb[50] I
la_oenb[51] I
la_oenb[52] I
la_oenb[53] I
la_oenb[54] I
la_oenb[55] I
la_oenb[56] I
la_oenb[57] I
la_oenb[58] I
la_oenb[59] I
la_oenb[5] I
la_oenb[60] I
la_oenb[61] I
la_oenb[62] I
la_oenb[63] I
la_oenb[6] I
la_oenb[7] I
la_oenb[8] I
la_oenb[9] I
user_clock2 I
user_irq[0] O
user_irq[1] O
user_irq[2] O
wb_clk_i I
wb_rst_i I
wbs_ack_o O
wbs_adr_i[0] I
wbs_adr_i[10] I
wbs_adr_i[11] I
wbs_adr_i[12] I
wbs_adr_i[13] I
wbs_adr_i[14] I
wbs_adr_i[15] I
wbs_adr_i[16] I
wbs_adr_i[17] I
wbs_adr_i[18] I
wbs_adr_i[19] I
wbs_adr_i[1] I
wbs_adr_i[20] I
wbs_adr_i[21] I
wbs_adr_i[22] I
wbs_adr_i[23] I
wbs_adr_i[24] I
wbs_adr_i[25] I
wbs_adr_i[26] I
wbs_adr_i[27] I
wbs_adr_i[28] I
wbs_adr_i[29] I
wbs_adr_i[2] I
wbs_adr_i[30] I
wbs_adr_i[31] I
wbs_adr_i[3] I
wbs_adr_i[4] I
wbs_adr_i[5] I
wbs_adr_i[6] I
wbs_adr_i[7] I
wbs_adr_i[8] I
wbs_adr_i[9] I
wbs_cyc_i I
wbs_dat_i[0] I
wbs_dat_i[10] I
wbs_dat_i[11] I
wbs_dat_i[12] I
wbs_dat_i[13] I
wbs_dat_i[14] I
wbs_dat_i[15] I
wbs_dat_i[16] I
wbs_dat_i[17] I
wbs_dat_i[18] I
wbs_dat_i[19] I
wbs_dat_i[1] I
wbs_dat_i[20] I
wbs_dat_i[21] I
wbs_dat_i[22] I
wbs_dat_i[23] I
wbs_dat_i[24] I
wbs_dat_i[25] I
wbs_dat_i[26] I
wbs_dat_i[27] I
wbs_dat_i[28] I
wbs_dat_i[29] I
wbs_dat_i[2] I
wbs_dat_i[30] I
wbs_dat_i[31] I
wbs_dat_i[3] I
wbs_dat_i[4] I
wbs_dat_i[5] I
wbs_dat_i[6] I
wbs_dat_i[7] I
wbs_dat_i[8] I
wbs_dat_i[9] I
wbs_dat_o[0] O
wbs_dat_o[10] O
wbs_dat_o[11] O
wbs_dat_o[12] O
wbs_dat_o[13] O
wbs_dat_o[14] O
wbs_dat_o[15] O
wbs_dat_o[16] O
wbs_dat_o[17] O
wbs_dat_o[18] O
wbs_dat_o[19] O
wbs_dat_o[1] O
wbs_dat_o[20] O
wbs_dat_o[21] O
wbs_dat_o[22] O
wbs_dat_o[23] O
wbs_dat_o[24] O
wbs_dat_o[25] O
wbs_dat_o[26] O
wbs_dat_o[27] O
wbs_dat_o[28] O
wbs_dat_o[29] O
wbs_dat_o[2] O
wbs_dat_o[30] O
wbs_dat_o[31] O
wbs_dat_o[3] O
wbs_dat_o[4] O
wbs_dat_o[5] O
wbs_dat_o[6] O
wbs_dat_o[7] O
wbs_dat_o[8] O
wbs_dat_o[9] O
wbs_sel_i[0] I
wbs_sel_i[1] I
wbs_sel_i[2] I
wbs_sel_i[3] I
wbs_stb_i I
wbs_we_i I

*D_NET *1 0.00980958
*CONN
*P io_in[0] I
*I *419:io_in[0] I *D rift2Wrap
*CAP
1 io_in[0] 0.00490479
2 *419:io_in[0] 0.00490479
*RES
1 io_in[0] *419:io_in[0] 47.34 
*END

*D_NET *2 0.0195804
*CONN
*P io_in[10] I
*I *419:io_in[10] I *D rift2Wrap
*CAP
1 io_in[10] 0.00215865
2 *419:io_in[10] 0.00318423
3 *2:7 0.00534288
4 *419:io_in[10] *76:9 0.00230616
5 *419:io_in[10] *78:9 0.0065885
*RES
1 io_in[10] *2:7 20.565 
2 *2:7 *419:io_in[10] 44.055 
*END

*D_NET *3 0.0127818
*CONN
*P io_in[11] I
*I *419:io_in[11] I *D rift2Wrap
*CAP
1 io_in[11] 0.0045974
2 *419:io_in[11] 0.0017935
3 *3:11 0.00639091
*RES
1 io_in[11] *3:11 45.495 
2 *3:11 *419:io_in[11] 13.725 
*END

*D_NET *4 0.0131424
*CONN
*P io_in[12] I
*I *419:io_in[12] I *D rift2Wrap
*CAP
1 io_in[12] 0.00363863
2 *419:io_in[12] 0.00181508
3 *4:11 0.00545372
4 *419:io_in[12] io_oeb[11] 0
5 *4:11 *80:11 0.00223498
*RES
1 io_in[12] *4:11 39.915 
2 *4:11 *419:io_in[12] 13.905 
*END

*D_NET *5 0.0108434
*CONN
*P io_in[13] I
*I *419:io_in[13] I *D rift2Wrap
*CAP
1 io_in[13] 0.0054158
2 *419:io_in[13] 0.0054158
3 *419:io_in[13] *81:11 1.18323e-05
*RES
1 io_in[13] *419:io_in[13] 48.42 
*END

*D_NET *6 0.00950743
*CONN
*P io_in[14] I
*I *419:io_in[14] I *D rift2Wrap
*CAP
1 io_in[14] 0.00475371
2 *419:io_in[14] 0.00475371
*RES
1 io_in[14] *419:io_in[14] 43.02 
*END

*D_NET *7 0.017504
*CONN
*P io_in[15] I
*I *419:io_in[15] I *D rift2Wrap
*CAP
1 io_in[15] 0.00107539
2 *419:io_in[15] 0.00105662
3 *7:11 0.00594635
4 *7:7 0.00596512
5 *7:11 *83:9 0.00346057
*RES
1 io_in[15] *7:7 12.825 
2 *7:7 *7:11 48.69 
3 *7:11 *419:io_in[15] 7.965 
*END

*D_NET *8 0.0141876
*CONN
*P io_in[16] I
*I *419:io_in[16] I *D rift2Wrap
*CAP
1 io_in[16] 0.00107539
2 *419:io_in[16] 0.00107256
3 *8:11 0.0060184
4 *8:7 0.00602123
*RES
1 io_in[16] *8:7 12.825 
2 *8:7 *8:11 44.55 
3 *8:11 *419:io_in[16] 7.965 
*END

*D_NET *9 0.0134046
*CONN
*P io_in[17] I
*I *419:io_in[17] I *D rift2Wrap
*CAP
1 io_in[17] 0.00554183
2 *419:io_in[17] 0.000919184
3 *9:9 0.00646101
4 *419:io_in[17] io_out[17] 0.000482542
*RES
1 io_in[17] *9:9 48.735 
2 *9:9 *419:io_in[17] 12.465 
*END

*D_NET *10 0.0121361
*CONN
*P io_in[18] I
*I *419:io_in[18] I *D rift2Wrap
*CAP
1 io_in[18] 0.00535632
2 *419:io_in[18] 0.000711722
3 *10:9 0.00606804
*RES
1 io_in[18] *10:9 47.295 
2 *10:9 *419:io_in[18] 9.765 
*END

*D_NET *11 0.0111434
*CONN
*P io_in[19] I
*I *419:io_in[19] I *D rift2Wrap
*CAP
1 io_in[19] 0.00486
2 *419:io_in[19] 0.000711722
3 *11:11 0.00557172
*RES
1 io_in[19] *11:11 47.655 
2 *11:11 *419:io_in[19] 5.265 
*END

*D_NET *12 0.00675502
*CONN
*P io_in[1] I
*I *419:io_in[1] I *D rift2Wrap
*CAP
1 io_in[1] 0.00337751
2 *419:io_in[1] 0.00337751
*RES
1 io_in[1] *419:io_in[1] 35.1 
*END

*D_NET *13 0.0099477
*CONN
*P io_in[20] I
*I *419:io_in[20] I *D rift2Wrap
*CAP
1 io_in[20] 0.00497385
2 *419:io_in[20] 0.00497385
*RES
1 io_in[20] *419:io_in[20] 48.78 
*END

*D_NET *14 0.00895505
*CONN
*P io_in[21] I
*I *419:io_in[21] I *D rift2Wrap
*CAP
1 io_in[21] 0.00447752
2 *419:io_in[21] 0.00447752
*RES
1 io_in[21] *419:io_in[21] 44.64 
*END

*D_NET *15 0.0079624
*CONN
*P io_in[22] I
*I *419:io_in[22] I *D rift2Wrap
*CAP
1 io_in[22] 0.0039812
2 *419:io_in[22] 0.0039812
*RES
1 io_in[22] *419:io_in[22] 40.5 
*END

*D_NET *16 0.00696975
*CONN
*P io_in[23] I
*I *419:io_in[23] I *D rift2Wrap
*CAP
1 io_in[23] 0.00348488
2 *419:io_in[23] 0.00348488
*RES
1 io_in[23] *419:io_in[23] 36.36 
*END

*D_NET *17 0.0157857
*CONN
*P io_in[24] I
*I *419:io_in[24] I *D rift2Wrap
*CAP
1 io_in[24] 0.00441706
2 *419:io_in[24] 0.000891823
3 *17:9 0.00530888
4 *17:9 *93:11 0.00516796
*RES
1 io_in[24] *17:9 46.215 
2 *17:9 *419:io_in[24] 10.845 
*END

*D_NET *18 0.0155833
*CONN
*P io_in[25] I
*I *419:io_in[25] I *D rift2Wrap
*CAP
1 io_in[25] 0.00438196
2 *419:io_in[25] 0.000891823
3 *18:9 0.00527378
4 *18:9 *94:11 0.00503571
*RES
1 io_in[25] *18:9 45.855 
2 *18:9 *419:io_in[25] 10.845 
*END

*D_NET *19 0.0153399
*CONN
*P io_in[26] I
*I *419:io_in[26] I *D rift2Wrap
*CAP
1 io_in[26] 0.00430412
2 *419:io_in[26] 0.000891823
3 *19:11 0.00519595
4 *19:11 *95:11 0.00494801
*RES
1 io_in[26] *19:11 49.995 
2 *19:11 *419:io_in[26] 6.345 
*END

*D_NET *20 0.0153416
*CONN
*P io_in[27] I
*I *419:io_in[27] I *D rift2Wrap
*CAP
1 io_in[27] 0.00724565
2 *419:io_in[27] 0.000384923
3 *20:9 0.00763057
4 *20:9 io_oeb[26] 8.04401e-05
*RES
1 io_in[27] *20:9 48.375 
2 *20:9 *419:io_in[27] 7.605 
*END

*D_NET *21 0.0151667
*CONN
*P io_in[28] I
*I *419:io_in[28] I *D rift2Wrap
*CAP
1 io_in[28] 0.00717862
2 *419:io_in[28] 0.000384923
3 *21:9 0.00756354
4 *21:9 io_oeb[27] 3.9614e-05
*RES
1 io_in[28] *21:9 48.015 
2 *21:9 *419:io_in[28] 7.605 
*END

*D_NET *22 0.0144987
*CONN
*P io_in[29] I
*I *419:io_in[29] I *D rift2Wrap
*CAP
1 io_in[29] 0.00686445
2 *419:io_in[29] 0.000384923
3 *22:9 0.00724937
*RES
1 io_in[29] *22:9 47.655 
2 *22:9 *419:io_in[29] 7.605 
*END

*D_NET *23 0.00779169
*CONN
*P io_in[2] I
*I *419:io_in[2] I *D rift2Wrap
*CAP
1 io_in[2] 0.00389584
2 *419:io_in[2] 0.00389584
*RES
1 io_in[2] *419:io_in[2] 38.7 
*END

*D_NET *24 0.0144442
*CONN
*P io_in[30] I
*I *419:io_in[30] I *D rift2Wrap
*CAP
1 io_in[30] 0.00418759
2 *419:io_in[30] 0.000891823
3 *24:11 0.00507941
4 *24:11 io_out[30] 0.00428537
*RES
1 io_in[30] *24:11 48.555 
2 *24:11 *419:io_in[30] 6.345 
*END

*D_NET *25 0.0142835
*CONN
*P io_in[31] I
*I *419:io_in[31] I *D rift2Wrap
*CAP
1 io_in[31] 0.00417335
2 *419:io_in[31] 0.000891823
3 *25:11 0.00506518
4 *25:11 io_out[31] 0.00415313
*RES
1 io_in[31] *25:11 48.195 
2 *25:11 *419:io_in[31] 6.345 
*END

*D_NET *26 0.0141473
*CONN
*P io_in[32] I
*I *419:io_in[32] I *D rift2Wrap
*CAP
1 io_in[32] 0.00668871
2 *419:io_in[32] 0.000384923
3 *26:9 0.00707363
*RES
1 io_in[32] *26:9 46.575 
2 *26:9 *419:io_in[32] 7.605 
*END

*D_NET *27 0.0140301
*CONN
*P io_in[33] I
*I *419:io_in[33] I *D rift2Wrap
*CAP
1 io_in[33] 0.00663013
2 *419:io_in[33] 0.000384923
3 *27:9 0.00701505
*RES
1 io_in[33] *27:9 46.215 
2 *27:9 *419:io_in[33] 7.605 
*END

*D_NET *28 0.0139129
*CONN
*P io_in[34] I
*I *419:io_in[34] I *D rift2Wrap
*CAP
1 io_in[34] 0.00657155
2 *419:io_in[34] 0.000384923
3 *28:9 0.00695647
*RES
1 io_in[34] *28:9 45.855 
2 *28:9 *419:io_in[34] 7.605 
*END

*D_NET *29 0.0110623
*CONN
*P io_in[35] I
*I *419:io_in[35] I *D rift2Wrap
*CAP
1 io_in[35] 0.00463933
2 *419:io_in[35] 0.000891808
3 *29:11 0.00553113
*RES
1 io_in[35] *29:11 46.755 
2 *29:11 *419:io_in[35] 6.345 
*END

*D_NET *30 0.00678529
*CONN
*P io_in[36] I
*I *419:io_in[36] I *D rift2Wrap
*CAP
1 io_in[36] 0.00339264
2 *419:io_in[36] 0.00339264
*RES
1 io_in[36] *419:io_in[36] 35.82 
*END

*D_NET *31 0.00399408
*CONN
*P io_in[37] I
*I *419:io_in[37] I *D rift2Wrap
*CAP
1 io_in[37] 0.00199704
2 *419:io_in[37] 0.00199704
*RES
1 io_in[37] *419:io_in[37] 24.48 
*END

*D_NET *32 0.0112068
*CONN
*P io_in[3] I
*I *419:io_in[3] I *D rift2Wrap
*CAP
1 io_in[3] 0.00334966
2 *419:io_in[3] 0.00179817
3 *32:11 0.00514783
4 *32:11 *108:11 0.000911099
*RES
1 io_in[3] *32:11 36.675 
2 *32:11 *419:io_in[3] 13.905 
*END

*D_NET *33 0.0168768
*CONN
*P io_in[4] I
*I *419:io_in[4] I *D rift2Wrap
*CAP
1 io_in[4] 0.00221872
2 *419:io_in[4] 0.00321959
3 *33:7 0.00543831
4 *419:io_in[4] *70:11 0.00408785
5 *419:io_in[4] *109:9 0.00191237
*RES
1 io_in[4] *33:7 20.925 
2 *33:7 *419:io_in[4] 41.535 
*END

*D_NET *34 0.0323985
*CONN
*P io_in[5] I
*I *419:io_in[5] I *D rift2Wrap
*CAP
1 io_in[5] 0.00219716
2 *419:io_in[5] 0.000708628
3 *34:11 0.00258515
4 *34:7 0.00407368
5 *34:11 *71:9 0.00886782
6 *34:11 *72:9 0.00349119
7 *34:11 *110:9 0.0104749
*RES
1 io_in[5] *34:7 20.745 
2 *34:7 *34:11 47.79 
3 *34:11 *419:io_in[5] 5.805 
*END

*D_NET *35 0.0194751
*CONN
*P io_in[6] I
*I *419:io_in[6] I *D rift2Wrap
*CAP
1 io_in[6] 0.00111227
2 *419:io_in[6] 0.00181041
3 *35:9 0.00862528
4 *35:7 0.00792714
*RES
1 io_in[6] *35:7 12.825 
2 *35:7 *35:9 55.17 
3 *35:9 *419:io_in[6] 18.225 
*END

*D_NET *36 0.0305928
*CONN
*P io_in[7] I
*I *419:io_in[7] I *D rift2Wrap
*CAP
1 io_in[7] 0.00219714
2 *419:io_in[7] 0.000725555
3 *36:9 0.00428495
4 *36:7 0.00575654
5 *36:9 *73:9 0.0114963
6 *36:9 *74:9 0.00613236
*RES
1 io_in[7] *36:7 20.745 
2 *36:7 *36:9 49.77 
3 *36:9 *419:io_in[7] 10.305 
*END

*D_NET *37 0.0337831
*CONN
*P io_in[8] I
*I *419:io_in[8] I *D rift2Wrap
*CAP
1 io_in[8] 0.00219716
2 *419:io_in[8] 0.000725555
3 *37:11 0.00259545
4 *37:7 0.00406705
5 *37:11 *74:9 0.00928982
6 *37:11 *75:9 0.00400015
7 *37:11 *113:9 0.0109079
*RES
1 io_in[8] *37:7 20.745 
2 *37:7 *37:11 48.87 
3 *37:11 *419:io_in[8] 5.805 
*END

*D_NET *38 0.0157845
*CONN
*P io_in[9] I
*I *419:io_in[9] I *D rift2Wrap
*CAP
1 io_in[9] 0.00134433
2 *419:io_in[9] 0.0017935
3 *38:11 0.00654792
4 *38:7 0.00609875
*RES
1 io_in[9] *38:7 12.825 
2 *38:7 *38:11 43.47 
3 *38:11 *419:io_in[9] 13.725 
*END

*D_NET *39 0.00806396
*CONN
*P io_oeb[0] O
*I *419:io_oeb[0] O *D rift2Wrap
*CAP
1 io_oeb[0] 0.00403198
2 *419:io_oeb[0] 0.00403198
*RES
1 *419:io_oeb[0] io_oeb[0] 39.06 
*END

*D_NET *40 0.0219056
*CONN
*P io_oeb[10] O
*I *419:io_oeb[10] O *D rift2Wrap
*CAP
1 io_oeb[10] 0.00221872
2 *419:io_oeb[10] 0.000687049
3 *40:11 0.00616989
4 *40:7 0.00463822
5 *40:11 *78:9 0.00819172
*RES
1 *419:io_oeb[10] *40:7 10.125 
2 *40:7 *40:11 46.17 
3 *40:11 io_oeb[10] 16.425 
*END

*D_NET *41 0.0188512
*CONN
*P io_oeb[11] O
*I *419:io_oeb[11] O *D rift2Wrap
*CAP
1 io_oeb[11] 0.00221872
2 *419:io_oeb[11] 0.00420682
3 *41:9 0.00642554
4 *41:9 *79:11 0.00600011
5 *419:io_in[12] io_oeb[11] 0
*RES
1 *419:io_oeb[11] *41:9 46.215 
2 *41:9 io_oeb[11] 20.925 
*END

*D_NET *42 0.0137142
*CONN
*P io_oeb[12] O
*I *419:io_oeb[12] O *D rift2Wrap
*CAP
1 io_oeb[12] 0.00220181
2 *419:io_oeb[12] 0.00465531
3 *42:11 0.00685712
*RES
1 *419:io_oeb[12] *42:11 45.315 
2 *42:11 io_oeb[12] 16.425 
*END

*D_NET *43 0.0119067
*CONN
*P io_oeb[13] O
*I *419:io_oeb[13] O *D rift2Wrap
*CAP
1 io_oeb[13] 0.00111227
2 *419:io_oeb[13] 0.00484107
3 *43:11 0.00595334
*RES
1 *419:io_oeb[13] *43:11 48.015 
2 *43:11 io_oeb[13] 8.325 
*END

*D_NET *44 0.0107962
*CONN
*P io_oeb[14] O
*I *419:io_oeb[14] O *D rift2Wrap
*CAP
1 io_oeb[14] 0.00111227
2 *419:io_oeb[14] 0.00428585
3 *44:11 0.00539812
*RES
1 *419:io_oeb[14] *44:11 42.615 
2 *44:11 io_oeb[14] 8.325 
*END

*D_NET *45 0.0103666
*CONN
*P io_oeb[15] O
*I *419:io_oeb[15] O *D rift2Wrap
*CAP
1 io_oeb[15] 0.00518329
2 *419:io_oeb[15] 0.00518329
3 io_oeb[15] *83:9 0
*RES
1 *419:io_oeb[15] io_oeb[15] 49.68 
*END

*D_NET *46 0.00940779
*CONN
*P io_oeb[16] O
*I *419:io_oeb[16] O *D rift2Wrap
*CAP
1 io_oeb[16] 0.00470389
2 *419:io_oeb[16] 0.00470389
*RES
1 *419:io_oeb[16] io_oeb[16] 45.54 
*END

*D_NET *47 0.00822135
*CONN
*P io_oeb[17] O
*I *419:io_oeb[17] O *D rift2Wrap
*CAP
1 io_oeb[17] 0.00411068
2 *419:io_oeb[17] 0.00411068
*RES
1 *419:io_oeb[17] io_oeb[17] 41.58 
*END

*D_NET *48 0.00718554
*CONN
*P io_oeb[18] O
*I *419:io_oeb[18] O *D rift2Wrap
*CAP
1 io_oeb[18] 0.00359277
2 *419:io_oeb[18] 0.00359277
*RES
1 *419:io_oeb[18] io_oeb[18] 37.26 
*END

*D_NET *49 0.00619289
*CONN
*P io_oeb[19] O
*I *419:io_oeb[19] O *D rift2Wrap
*CAP
1 io_oeb[19] 0.00309645
2 *419:io_oeb[19] 0.00309645
*RES
1 *419:io_oeb[19] io_oeb[19] 33.12 
*END

*D_NET *50 0.00714788
*CONN
*P io_oeb[1] O
*I *419:io_oeb[1] O *D rift2Wrap
*CAP
1 io_oeb[1] 0.00357394
2 *419:io_oeb[1] 0.00357394
*RES
1 *419:io_oeb[1] io_oeb[1] 34.74 
*END

*D_NET *51 0.00520025
*CONN
*P io_oeb[20] O
*I *419:io_oeb[20] O *D rift2Wrap
*CAP
1 io_oeb[20] 0.00260012
2 *419:io_oeb[20] 0.00260012
*RES
1 *419:io_oeb[20] io_oeb[20] 28.98 
*END

*D_NET *52 0.00426217
*CONN
*P io_oeb[21] O
*I *419:io_oeb[21] O *D rift2Wrap
*CAP
1 io_oeb[21] 0.00213108
2 *419:io_oeb[21] 0.00213108
*RES
1 *419:io_oeb[21] io_oeb[21] 16.56 
*END

*D_NET *53 0.00537288
*CONN
*P io_oeb[22] O
*I *419:io_oeb[22] O *D rift2Wrap
*CAP
1 io_oeb[22] 0.00268644
2 *419:io_oeb[22] 0.00268644
*RES
1 *419:io_oeb[22] io_oeb[22] 29.7 
*END

*D_NET *54 0.00636553
*CONN
*P io_oeb[23] O
*I *419:io_oeb[23] O *D rift2Wrap
*CAP
1 io_oeb[23] 0.00318277
2 *419:io_oeb[23] 0.00318277
*RES
1 *419:io_oeb[23] io_oeb[23] 33.84 
*END

*D_NET *55 0.0115481
*CONN
*P io_oeb[24] O
*I *419:io_oeb[24] O *D rift2Wrap
*CAP
1 io_oeb[24] 0.00577406
2 *419:io_oeb[24] 0.00577406
*RES
1 *419:io_oeb[24] io_oeb[24] 45.54 
*END

*D_NET *56 0.0112754
*CONN
*P io_oeb[25] O
*I *419:io_oeb[25] O *D rift2Wrap
*CAP
1 io_oeb[25] 0.00563769
2 *419:io_oeb[25] 0.00563769
*RES
1 *419:io_oeb[25] io_oeb[25] 45.18 
*END

*D_NET *57 0.00974119
*CONN
*P io_oeb[26] O
*I *419:io_oeb[26] O *D rift2Wrap
*CAP
1 io_oeb[26] 0.00483037
2 *419:io_oeb[26] 0.00483037
3 *20:9 io_oeb[26] 8.04401e-05
*RES
1 *419:io_oeb[26] io_oeb[26] 44.82 
*END

*D_NET *58 0.00949443
*CONN
*P io_oeb[27] O
*I *419:io_oeb[27] O *D rift2Wrap
*CAP
1 io_oeb[27] 0.00472741
2 *419:io_oeb[27] 0.00472741
3 *21:9 io_oeb[27] 3.9614e-05
*RES
1 *419:io_oeb[27] io_oeb[27] 44.46 
*END

*D_NET *59 0.00938405
*CONN
*P io_oeb[28] O
*I *419:io_oeb[28] O *D rift2Wrap
*CAP
1 io_oeb[28] 0.00469202
2 *419:io_oeb[28] 0.00469202
*RES
1 *419:io_oeb[28] io_oeb[28] 44.1 
*END

*D_NET *60 0.0108067
*CONN
*P io_oeb[29] O
*I *419:io_oeb[29] O *D rift2Wrap
*CAP
1 io_oeb[29] 0.00540336
2 *419:io_oeb[29] 0.00540336
*RES
1 *419:io_oeb[29] io_oeb[29] 43.74 
*END

*D_NET *61 0.00958787
*CONN
*P io_oeb[2] O
*I *419:io_oeb[2] O *D rift2Wrap
*CAP
1 io_oeb[2] 0.00479394
2 *419:io_oeb[2] 0.00479394
*RES
1 *419:io_oeb[2] io_oeb[2] 46.62 
*END

*D_NET *62 0.0106896
*CONN
*P io_oeb[30] O
*I *419:io_oeb[30] O *D rift2Wrap
*CAP
1 io_oeb[30] 0.00534478
2 *419:io_oeb[30] 0.00534478
*RES
1 *419:io_oeb[30] io_oeb[30] 43.38 
*END

*D_NET *63 0.0110883
*CONN
*P io_oeb[31] O
*I *419:io_oeb[31] O *D rift2Wrap
*CAP
1 io_oeb[31] 0.00554417
2 *419:io_oeb[31] 0.00554417
*RES
1 *419:io_oeb[31] io_oeb[31] 43.02 
*END

*D_NET *64 0.0109404
*CONN
*P io_oeb[32] O
*I *419:io_oeb[32] O *D rift2Wrap
*CAP
1 io_oeb[32] 0.00547022
2 *419:io_oeb[32] 0.00547022
*RES
1 *419:io_oeb[32] io_oeb[32] 42.66 
*END

*D_NET *65 0.00966421
*CONN
*P io_oeb[33] O
*I *419:io_oeb[33] O *D rift2Wrap
*CAP
1 io_oeb[33] 0.00404972
2 *419:io_oeb[33] 0.00404972
3 io_oeb[33] io_out[33] 0.00156477
*RES
1 *419:io_oeb[33] io_oeb[33] 42.3 
*END

*D_NET *66 0.00926676
*CONN
*P io_oeb[34] O
*I *419:io_oeb[34] O *D rift2Wrap
*CAP
1 io_oeb[34] 0.00392454
2 *419:io_oeb[34] 0.00392454
3 io_oeb[34] io_out[34] 0.00141767
*RES
1 *419:io_oeb[34] io_oeb[34] 41.94 
*END

*D_NET *67 0.00816
*CONN
*P io_oeb[35] O
*I *419:io_oeb[35] O *D rift2Wrap
*CAP
1 io_oeb[35] 0.00408
2 *419:io_oeb[35] 0.00408
*RES
1 *419:io_oeb[35] io_oeb[35] 41.58 
*END

*D_NET *68 0.00403412
*CONN
*P io_oeb[36] O
*I *419:io_oeb[36] O *D rift2Wrap
*CAP
1 io_oeb[36] 0.00201706
2 *419:io_oeb[36] 0.00201706
*RES
1 *419:io_oeb[36] io_oeb[36] 24.3 
*END

*D_NET *69 0.00806952
*CONN
*P io_oeb[37] O
*I *419:io_oeb[37] O *D rift2Wrap
*CAP
1 io_oeb[37] 0.00403476
2 *419:io_oeb[37] 0.00403476
*RES
1 *419:io_oeb[37] io_oeb[37] 35.82 
*END

*D_NET *70 0.0154108
*CONN
*P io_oeb[3] O
*I *419:io_oeb[3] O *D rift2Wrap
*CAP
1 io_oeb[3] 0.00218023
2 *419:io_oeb[3] 0.00348123
3 *70:11 0.00566146
4 *419:io_in[4] *70:11 0.00408785
*RES
1 *419:io_oeb[3] *70:11 42.255 
2 *70:11 io_oeb[3] 16.245 
*END

*D_NET *71 0.0268544
*CONN
*P io_oeb[4] O
*I *419:io_oeb[4] O *D rift2Wrap
*CAP
1 io_oeb[4] 0.00215865
2 *419:io_oeb[4] 0.00318008
3 *71:9 0.00533873
4 *71:9 *109:9 0.00730914
5 *34:11 *71:9 0.00886782
*RES
1 *419:io_oeb[4] *71:9 49.815 
2 *71:9 io_oeb[4] 20.565 
*END

*D_NET *72 0.0227575
*CONN
*P io_oeb[5] O
*I *419:io_oeb[5] O *D rift2Wrap
*CAP
1 io_oeb[5] 0.00219248
2 *419:io_oeb[5] 0.000764061
3 *72:9 0.00684847
4 *72:7 0.00542006
5 *72:9 *110:9 0.00404123
6 *34:11 *72:9 0.00349119
*RES
1 *419:io_oeb[5] *72:7 10.485 
2 *72:7 *72:9 51.39 
3 *72:9 io_oeb[5] 20.565 
*END

*D_NET *73 0.0293748
*CONN
*P io_oeb[6] O
*I *419:io_oeb[6] O *D rift2Wrap
*CAP
1 io_oeb[6] 0.00223565
2 *419:io_oeb[6] 0.000687049
3 *73:9 0.00825219
4 *73:7 0.00670359
5 *36:9 *73:9 0.0114963
*RES
1 *419:io_oeb[6] *73:7 10.125 
2 *73:7 *73:9 63.09 
3 *73:9 io_oeb[6] 20.925 
*END

*D_NET *74 0.0308432
*CONN
*P io_oeb[7] O
*I *419:io_oeb[7] O *D rift2Wrap
*CAP