*SPEF "ieee 1481-1999"
*DESIGN "user_project_wrapper"
*DATE "11:11:11 Fri 11 11, 1111"
*VENDOR "OpenRCX"
*PROGRAM "Parallel Extraction"
*VERSION "1.0"
*DESIGN_FLOW "NAME_SCOPE LOCAL" "PIN_CAP NONE"
*DIVIDER /
*DELIMITER :
*BUS_DELIMITER []
*T_UNIT 1 NS
*C_UNIT 1 PF
*R_UNIT 1 OHM
*L_UNIT 1 HENRY

*NAME_MAP
*1 io_in[0]
*2 io_in[10]
*3 io_in[11]
*4 io_in[12]
*5 io_in[13]
*6 io_in[14]
*7 io_in[15]
*8 io_in[16]
*9 io_in[17]
*10 io_in[18]
*11 io_in[19]
*12 io_in[1]
*13 io_in[20]
*14 io_in[21]
*15 io_in[22]
*16 io_in[23]
*17 io_in[24]
*18 io_in[25]
*19 io_in[26]
*20 io_in[27]
*21 io_in[28]
*22 io_in[29]
*23 io_in[2]
*24 io_in[30]
*25 io_in[31]
*26 io_in[32]
*27 io_in[33]
*28 io_in[34]
*29 io_in[35]
*30 io_in[36]
*31 io_in[37]
*32 io_in[3]
*33 io_in[4]
*34 io_in[5]
*35 io_in[6]
*36 io_in[7]
*37 io_in[8]
*38 io_in[9]
*39 io_oeb[0]
*40 io_oeb[10]
*41 io_oeb[11]
*42 io_oeb[12]
*43 io_oeb[13]
*44 io_oeb[14]
*45 io_oeb[15]
*46 io_oeb[16]
*47 io_oeb[17]
*48 io_oeb[18]
*49 io_oeb[19]
*50 io_oeb[1]
*51 io_oeb[20]
*52 io_oeb[21]
*53 io_oeb[22]
*54 io_oeb[23]
*55 io_oeb[24]
*56 io_oeb[25]
*57 io_oeb[26]
*58 io_oeb[27]
*59 io_oeb[28]
*60 io_oeb[29]
*61 io_oeb[2]
*62 io_oeb[30]
*63 io_oeb[31]
*64 io_oeb[32]
*65 io_oeb[33]
*66 io_oeb[34]
*67 io_oeb[35]
*68 io_oeb[36]
*69 io_oeb[37]
*70 io_oeb[3]
*71 io_oeb[4]
*72 io_oeb[5]
*73 io_oeb[6]
*74 io_oeb[7]
*75 io_oeb[8]
*76 io_oeb[9]
*77 io_out[0]
*78 io_out[10]
*79 io_out[11]
*80 io_out[12]
*81 io_out[13]
*82 io_out[14]
*83 io_out[15]
*84 io_out[16]
*85 io_out[17]
*86 io_out[18]
*87 io_out[19]
*88 io_out[1]
*89 io_out[20]
*90 io_out[21]
*91 io_out[22]
*92 io_out[23]
*93 io_out[24]
*94 io_out[25]
*95 io_out[26]
*96 io_out[27]
*97 io_out[28]
*98 io_out[29]
*99 io_out[2]
*100 io_out[30]
*101 io_out[31]
*102 io_out[32]
*103 io_out[33]
*104 io_out[34]
*105 io_out[35]
*106 io_out[36]
*107 io_out[37]
*108 io_out[3]
*109 io_out[4]
*110 io_out[5]
*111 io_out[6]
*112 io_out[7]
*113 io_out[8]
*114 io_out[9]
*115 la_data_in[0]
*116 la_data_in[10]
*117 la_data_in[11]
*118 la_data_in[12]
*119 la_data_in[13]
*120 la_data_in[14]
*121 la_data_in[15]
*122 la_data_in[16]
*123 la_data_in[17]
*124 la_data_in[18]
*125 la_data_in[19]
*126 la_data_in[1]
*127 la_data_in[20]
*128 la_data_in[21]
*129 la_data_in[22]
*130 la_data_in[23]
*131 la_data_in[24]
*132 la_data_in[25]
*133 la_data_in[26]
*134 la_data_in[27]
*135 la_data_in[28]
*136 la_data_in[29]
*137 la_data_in[2]
*138 la_data_in[30]
*139 la_data_in[31]
*140 la_data_in[32]
*141 la_data_in[33]
*142 la_data_in[34]
*143 la_data_in[35]
*144 la_data_in[36]
*145 la_data_in[37]
*146 la_data_in[38]
*147 la_data_in[39]
*148 la_data_in[3]
*149 la_data_in[40]
*150 la_data_in[41]
*151 la_data_in[42]
*152 la_data_in[43]
*153 la_data_in[44]
*154 la_data_in[45]
*155 la_data_in[46]
*156 la_data_in[47]
*157 la_data_in[48]
*158 la_data_in[49]
*159 la_data_in[4]
*160 la_data_in[50]
*161 la_data_in[51]
*162 la_data_in[52]
*163 la_data_in[53]
*164 la_data_in[54]
*165 la_data_in[55]
*166 la_data_in[56]
*167 la_data_in[57]
*168 la_data_in[58]
*169 la_data_in[59]
*170 la_data_in[5]
*171 la_data_in[60]
*172 la_data_in[61]
*173 la_data_in[62]
*174 la_data_in[63]
*175 la_data_in[6]
*176 la_data_in[7]
*177 la_data_in[8]
*178 la_data_in[9]
*179 la_data_out[0]
*180 la_data_out[10]
*181 la_data_out[11]
*182 la_data_out[12]
*183 la_data_out[13]
*184 la_data_out[14]
*185 la_data_out[15]
*186 la_data_out[16]
*187 la_data_out[17]
*188 la_data_out[18]
*189 la_data_out[19]
*190 la_data_out[1]
*191 la_data_out[20]
*192 la_data_out[21]
*193 la_data_out[22]
*194 la_data_out[23]
*195 la_data_out[24]
*196 la_data_out[25]
*197 la_data_out[26]
*198 la_data_out[27]
*199 la_data_out[28]
*200 la_data_out[29]
*201 la_data_out[2]
*202 la_data_out[30]
*203 la_data_out[31]
*204 la_data_out[32]
*205 la_data_out[33]
*206 la_data_out[34]
*207 la_data_out[35]
*208 la_data_out[36]
*209 la_data_out[37]
*210 la_data_out[38]
*211 la_data_out[39]
*212 la_data_out[3]
*213 la_data_out[40]
*214 la_data_out[41]
*215 la_data_out[42]
*216 la_data_out[43]
*217 la_data_out[44]
*218 la_data_out[45]
*219 la_data_out[46]
*220 la_data_out[47]
*221 la_data_out[48]
*222 la_data_out[49]
*223 la_data_out[4]
*224 la_data_out[50]
*225 la_data_out[51]
*226 la_data_out[52]
*227 la_data_out[53]
*228 la_data_out[54]
*229 la_data_out[55]
*230 la_data_out[56]
*231 la_data_out[57]
*232 la_data_out[58]
*233 la_data_out[59]
*234 la_data_out[5]
*235 la_data_out[60]
*236 la_data_out[61]
*237 la_data_out[62]
*238 la_data_out[63]
*239 la_data_out[6]
*240 la_data_out[7]
*241 la_data_out[8]
*242 la_data_out[9]
*243 la_oenb[0]
*244 la_oenb[10]
*245 la_oenb[11]
*246 la_oenb[12]
*247 la_oenb[13]
*248 la_oenb[14]
*249 la_oenb[15]
*250 la_oenb[16]
*251 la_oenb[17]
*252 la_oenb[18]
*253 la_oenb[19]
*254 la_oenb[1]
*255 la_oenb[20]
*256 la_oenb[21]
*257 la_oenb[22]
*258 la_oenb[23]
*259 la_oenb[24]
*260 la_oenb[25]
*261 la_oenb[26]
*262 la_oenb[27]
*263 la_oenb[28]
*264 la_oenb[29]
*265 la_oenb[2]
*266 la_oenb[30]
*267 la_oenb[31]
*268 la_oenb[32]
*269 la_oenb[33]
*270 la_oenb[34]
*271 la_oenb[35]
*272 la_oenb[36]
*273 la_oenb[37]
*274 la_oenb[38]
*275 la_oenb[39]
*276 la_oenb[3]
*277 la_oenb[40]
*278 la_oenb[41]
*279 la_oenb[42]
*280 la_oenb[43]
*281 la_oenb[44]
*282 la_oenb[45]
*283 la_oenb[46]
*284 la_oenb[47]
*285 la_oenb[48]
*286 la_oenb[49]
*287 la_oenb[4]
*288 la_oenb[50]
*289 la_oenb[51]
*290 la_oenb[52]
*291 la_oenb[53]
*292 la_oenb[54]
*293 la_oenb[55]
*294 la_oenb[56]
*295 la_oenb[57]
*296 la_oenb[58]
*297 la_oenb[59]
*298 la_oenb[5]
*299 la_oenb[60]
*300 la_oenb[61]
*301 la_oenb[62]
*302 la_oenb[63]
*303 la_oenb[6]
*304 la_oenb[7]
*305 la_oenb[8]
*306 la_oenb[9]
*307 user_clock2
*308 user_irq[0]
*309 user_irq[1]
*310 user_irq[2]
*313 wb_clk_i
*314 wb_rst_i
*315 wbs_ack_o
*316 wbs_adr_i[0]
*317 wbs_adr_i[10]
*318 wbs_adr_i[11]
*319 wbs_adr_i[12]
*320 wbs_adr_i[13]
*321 wbs_adr_i[14]
*322 wbs_adr_i[15]
*323 wbs_adr_i[16]
*324 wbs_adr_i[17]
*325 wbs_adr_i[18]
*326 wbs_adr_i[19]
*327 wbs_adr_i[1]
*328 wbs_adr_i[20]
*329 wbs_adr_i[21]
*330 wbs_adr_i[22]
*331 wbs_adr_i[23]
*332 wbs_adr_i[24]
*333 wbs_adr_i[25]
*334 wbs_adr_i[26]
*335 wbs_adr_i[27]
*336 wbs_adr_i[28]
*337 wbs_adr_i[29]
*338 wbs_adr_i[2]
*339 wbs_adr_i[30]
*340 wbs_adr_i[31]
*341 wbs_adr_i[3]
*342 wbs_adr_i[4]
*343 wbs_adr_i[5]
*344 wbs_adr_i[6]
*345 wbs_adr_i[7]
*346 wbs_adr_i[8]
*347 wbs_adr_i[9]
*348 wbs_cyc_i
*349 wbs_dat_i[0]
*350 wbs_dat_i[10]
*351 wbs_dat_i[11]
*352 wbs_dat_i[12]
*353 wbs_dat_i[13]
*354 wbs_dat_i[14]
*355 wbs_dat_i[15]
*356 wbs_dat_i[16]
*357 wbs_dat_i[17]
*358 wbs_dat_i[18]
*359 wbs_dat_i[19]
*360 wbs_dat_i[1]
*361 wbs_dat_i[20]
*362 wbs_dat_i[21]
*363 wbs_dat_i[22]
*364 wbs_dat_i[23]
*365 wbs_dat_i[24]
*366 wbs_dat_i[25]
*367 wbs_dat_i[26]
*368 wbs_dat_i[27]
*369 wbs_dat_i[28]
*370 wbs_dat_i[29]
*371 wbs_dat_i[2]
*372 wbs_dat_i[30]
*373 wbs_dat_i[31]
*374 wbs_dat_i[3]
*375 wbs_dat_i[4]
*376 wbs_dat_i[5]
*377 wbs_dat_i[6]
*378 wbs_dat_i[7]
*379 wbs_dat_i[8]
*380 wbs_dat_i[9]
*381 wbs_dat_o[0]
*382 wbs_dat_o[10]
*383 wbs_dat_o[11]
*384 wbs_dat_o[12]
*385 wbs_dat_o[13]
*386 wbs_dat_o[14]
*387 wbs_dat_o[15]
*388 wbs_dat_o[16]
*389 wbs_dat_o[17]
*390 wbs_dat_o[18]
*391 wbs_dat_o[19]
*392 wbs_dat_o[1]
*393 wbs_dat_o[20]
*394 wbs_dat_o[21]
*395 wbs_dat_o[22]
*396 wbs_dat_o[23]
*397 wbs_dat_o[24]
*398 wbs_dat_o[25]
*399 wbs_dat_o[26]
*400 wbs_dat_o[27]
*401 wbs_dat_o[28]
*402 wbs_dat_o[29]
*403 wbs_dat_o[2]
*404 wbs_dat_o[30]
*405 wbs_dat_o[31]
*406 wbs_dat_o[3]
*407 wbs_dat_o[4]
*408 wbs_dat_o[5]
*409 wbs_dat_o[6]
*410 wbs_dat_o[7]
*411 wbs_dat_o[8]
*412 wbs_dat_o[9]
*413 wbs_sel_i[0]
*414 wbs_sel_i[1]
*415 wbs_sel_i[2]
*416 wbs_sel_i[3]
*417 wbs_stb_i
*418 wbs_we_i
*419 i_Rift2Wrap

*PORTS
io_in[0] I
io_in[10] I
io_in[11] I
io_in[12] I
io_in[13] I
io_in[14] I
io_in[15] I
io_in[16] I
io_in[17] I
io_in[18] I
io_in[19] I
io_in[1] I
io_in[20] I
io_in[21] I
io_in[22] I
io_in[23] I
io_in[24] I
io_in[25] I
io_in[26] I
io_in[27] I
io_in[28] I
io_in[29] I
io_in[2] I
io_in[30] I
io_in[31] I
io_in[32] I
io_in[33] I
io_in[34] I
io_in[35] I
io_in[36] I
io_in[37] I
io_in[3] I
io_in[4] I
io_in[5] I
io_in[6] I
io_in[7] I
io_in[8] I
io_in[9] I
io_oeb[0] O
io_oeb[10] O
io_oeb[11] O
io_oeb[12] O
io_oeb[13] O
io_oeb[14] O
io_oeb[15] O
io_oeb[16] O
io_oeb[17] O
io_oeb[18] O
io_oeb[19] O
io_oeb[1] O
io_oeb[20] O
io_oeb[21] O
io_oeb[22] O
io_oeb[23] O
io_oeb[24] O
io_oeb[25] O
io_oeb[26] O
io_oeb[27] O
io_oeb[28] O
io_oeb[29] O
io_oeb[2] O
io_oeb[30] O
io_oeb[31] O
io_oeb[32] O
io_oeb[33] O
io_oeb[34] O
io_oeb[35] O
io_oeb[36] O
io_oeb[37] O
io_oeb[3] O
io_oeb[4] O
io_oeb[5] O
io_oeb[6] O
io_oeb[7] O
io_oeb[8] O
io_oeb[9] O
io_out[0] O
io_out[10] O
io_out[11] O
io_out[12] O
io_out[13] O
io_out[14] O
io_out[15] O
io_out[16] O
io_out[17] O
io_out[18] O
io_out[19] O
io_out[1] O
io_out[20] O
io_out[21] O
io_out[22] O
io_out[23] O
io_out[24] O
io_out[25] O
io_out[26] O
io_out[27] O
io_out[28] O
io_out[29] O
io_out[2] O
io_out[30] O
io_out[31] O
io_out[32] O
io_out[33] O
io_out[34] O
io_out[35] O
io_out[36] O
io_out[37] O
io_out[3] O
io_out[4] O
io_out[5] O
io_out[6] O
io_out[7] O
io_out[8] O
io_out[9] O
la_data_in[0] I
la_data_in[10] I
la_data_in[11] I
la_data_in[12] I
la_data_in[13] I
la_data_in[14] I
la_data_in[15] I
la_data_in[16] I
la_data_in[17] I
la_data_in[18] I
la_data_in[19] I
la_data_in[1] I
la_data_in[20] I
la_data_in[21] I
la_data_in[22] I
la_data_in[23] I
la_data_in[24] I
la_data_in[25] I
la_data_in[26] I
la_data_in[27] I
la_data_in[28] I
la_data_in[29] I
la_data_in[2] I
la_data_in[30] I
la_data_in[31] I
la_data_in[32] I
la_data_in[33] I
la_data_in[34] I
la_data_in[35] I
la_data_in[36] I
la_data_in[37] I
la_data_in[38] I
la_data_in[39] I
la_data_in[3] I
la_data_in[40] I
la_data_in[41] I
la_data_in[42] I
la_data_in[43] I
la_data_in[44] I
la_data_in[45] I
la_data_in[46] I
la_data_in[47] I
la_data_in[48] I
la_data_in[49] I
la_data_in[4] I
la_data_in[50] I
la_data_in[51] I
la_data_in[52] I
la_data_in[53] I
la_data_in[54] I
la_data_in[55] I
la_data_in[56] I
la_data_in[57] I
la_data_in[58] I
la_data_in[59] I
la_data_in[5] I
la_data_in[60] I
la_data_in[61] I
la_data_in[62] I
la_data_in[63] I
la_data_in[6] I
la_data_in[7] I
la_data_in[8] I
la_data_in[9] I
la_data_out[0] O
la_data_out[10] O
la_data_out[11] O
la_data_out[12] O
la_data_out[13] O
la_data_out[14] O
la_data_out[15] O
la_data_out[16] O
la_data_out[17] O
la_data_out[18] O
la_data_out[19] O
la_data_out[1] O
la_data_out[20] O
la_data_out[21] O
la_data_out[22] O
la_data_out[23] O
la_data_out[24] O
la_data_out[25] O
la_data_out[26] O
la_data_out[27] O
la_data_out[28] O
la_data_out[29] O
la_data_out[2] O
la_data_out[30] O
la_data_out[31] O
la_data_out[32] O
la_data_out[33] O
la_data_out[34] O
la_data_out[35] O
la_data_out[36] O
la_data_out[37] O
la_data_out[38] O
la_data_out[39] O
la_data_out[3] O
la_data_out[40] O
la_data_out[41] O
la_data_out[42] O
la_data_out[43] O
la_data_out[44] O
la_data_out[45] O
la_data_out[46] O
la_data_out[47] O
la_data_out[48] O
la_data_out[49] O
la_data_out[4] O
la_data_out[50] O
la_data_out[51] O
la_data_out[52] O
la_data_out[53] O
la_data_out[54] O
la_data_out[55] O
la_data_out[56] O
la_data_out[57] O
la_data_out[58] O
la_data_out[59] O
la_data_out[5] O
la_data_out[60] O
la_data_out[61] O
la_data_out[62] O
la_data_out[63] O
la_data_out[6] O
la_data_out[7] O
la_data_out[8] O
la_data_out[9] O
la_oenb[0] I
la_oenb[10] I
la_oenb[11] I
la_oenb[12] I
la_oenb[13] I
la_oenb[14] I
la_oenb[15] I
la_oenb[16] I
la_oenb[17] I
la_oenb[18] I
la_oenb[19] I
la_oenb[1] I
la_oenb[20] I
la_oenb[21] I
la_oenb[22] I
la_oenb[23] I
la_oenb[24] I
la_oenb[25] I
la_oenb[26] I
la_oenb[27] I
la_oenb[28] I
la_oenb[29] I
la_oenb[2] I
la_oenb[30] I
la_oenb[31] I
la_oenb[32] I
la_oenb[33] I
la_oenb[34] I
la_oenb[35] I
la_oenb[36] I
la_oenb[37] I
la_oenb[38] I
la_oenb[39] I
la_oenb[3] I
la_oenb[40] I
la_oenb[41] I
la_oenb[42] I
la_oenb[43] I
la_oenb[44] I
la_oenb[45] I
la_oenb[46] I
la_oenb[47] I
la_oenb[48] I
la_oenb[49] I
la_oenb[4] I
la_oenb[50] I
la_oenb[51] I
la_oenb[52] I
la_oenb[53] I
la_oenb[54] I
la_oenb[55] I
la_oenb[56] I
la_oenb[57] I
la_oenb[58] I
la_oenb[59] I
la_oenb[5] I
la_oenb[60] I
la_oenb[61] I
la_oenb[62] I
la_oenb[63] I
la_oenb[6] I
la_oenb[7] I
la_oenb[8] I
la_oenb[9] I
user_clock2 I
user_irq[0] O
user_irq[1] O
user_irq[2] O
wb_clk_i I
wb_rst_i I
wbs_ack_o O
wbs_adr_i[0] I
wbs_adr_i[10] I
wbs_adr_i[11] I
wbs_adr_i[12] I
wbs_adr_i[13] I
wbs_adr_i[14] I
wbs_adr_i[15] I
wbs_adr_i[16] I
wbs_adr_i[17] I
wbs_adr_i[18] I
wbs_adr_i[19] I
wbs_adr_i[1] I
wbs_adr_i[20] I
wbs_adr_i[21] I
wbs_adr_i[22] I
wbs_adr_i[23] I
wbs_adr_i[24] I
wbs_adr_i[25] I
wbs_adr_i[26] I
wbs_adr_i[27] I
wbs_adr_i[28] I
wbs_adr_i[29] I
wbs_adr_i[2] I
wbs_adr_i[30] I
wbs_adr_i[31] I
wbs_adr_i[3] I
wbs_adr_i[4] I
wbs_adr_i[5] I
wbs_adr_i[6] I
wbs_adr_i[7] I
wbs_adr_i[8] I
wbs_adr_i[9] I
wbs_cyc_i I
wbs_dat_i[0] I
wbs_dat_i[10] I
wbs_dat_i[11] I
wbs_dat_i[12] I
wbs_dat_i[13] I
wbs_dat_i[14] I
wbs_dat_i[15] I
wbs_dat_i[16] I
wbs_dat_i[17] I
wbs_dat_i[18] I
wbs_dat_i[19] I
wbs_dat_i[1] I
wbs_dat_i[20] I
wbs_dat_i[21] I
wbs_dat_i[22] I
wbs_dat_i[23] I
wbs_dat_i[24] I
wbs_dat_i[25] I
wbs_dat_i[26] I
wbs_dat_i[27] I
wbs_dat_i[28] I
wbs_dat_i[29] I
wbs_dat_i[2] I
wbs_dat_i[30] I
wbs_dat_i[31] I
wbs_dat_i[3] I
wbs_dat_i[4] I
wbs_dat_i[5] I
wbs_dat_i[6] I
wbs_dat_i[7] I
wbs_dat_i[8] I
wbs_dat_i[9] I
wbs_dat_o[0] O
wbs_dat_o[10] O
wbs_dat_o[11] O
wbs_dat_o[12] O
wbs_dat_o[13] O
wbs_dat_o[14] O
wbs_dat_o[15] O
wbs_dat_o[16] O
wbs_dat_o[17] O
wbs_dat_o[18] O
wbs_dat_o[19] O
wbs_dat_o[1] O
wbs_dat_o[20] O
wbs_dat_o[21] O
wbs_dat_o[22] O
wbs_dat_o[23] O
wbs_dat_o[24] O
wbs_dat_o[25] O
wbs_dat_o[26] O
wbs_dat_o[27] O
wbs_dat_o[28] O
wbs_dat_o[29] O
wbs_dat_o[2] O
wbs_dat_o[30] O
wbs_dat_o[31] O
wbs_dat_o[3] O
wbs_dat_o[4] O
wbs_dat_o[5] O
wbs_dat_o[6] O
wbs_dat_o[7] O
wbs_dat_o[8] O
wbs_dat_o[9] O
wbs_sel_i[0] I
wbs_sel_i[1] I
wbs_sel_i[2] I
wbs_sel_i[3] I
wbs_stb_i I
wbs_we_i I

*D_NET *1 0.0104213
*CONN
*P io_in[0] I
*I *419:io_in[0] I *D rift2Wrap
*CAP
1 io_in[0] 0.00448806
2 *419:io_in[0] 0.000722589
3 *1:11 0.00521064
*RES
1 io_in[0] *1:11 46.804 
2 *1:11 *419:io_in[0] 6.5 
*END

*D_NET *2 0.0213758
*CONN
*P io_in[10] I
*I *419:io_in[10] I *D rift2Wrap
*CAP
1 io_in[10] 0.00231341
2 *419:io_in[10] 0.000789299
3 *2:11 0.00337301
4 *2:7 0.00489712
5 *2:11 *76:9 0.00245285
6 *2:11 *78:11 0.00755011
*RES
1 io_in[10] *2:7 23.064 
2 *2:7 *2:11 43.292 
3 *2:11 *419:io_in[10] 6.916 
*END

*D_NET *3 0.0135669
*CONN
*P io_in[11] I
*I *419:io_in[11] I *D rift2Wrap
*CAP
1 io_in[11] 0.0048715
2 *419:io_in[11] 0.00191197
3 *3:9 0.00678347
*RES
1 io_in[11] *3:9 46.672 
2 *3:9 *419:io_in[11] 20.36 
*END

*D_NET *4 0.0141713
*CONN
*P io_in[12] I
*I *419:io_in[12] I *D rift2Wrap
*CAP
1 io_in[12] 0.00387065
2 *419:io_in[12] 0.00193458
3 *4:11 0.00580522
4 *419:io_in[12] io_oeb[11] 0
5 *4:11 io_out[12] 0.00256087
*RES
1 io_in[12] *4:11 44.724 
2 *4:11 *419:io_in[12] 16.068 
*END

*D_NET *5 0.0115448
*CONN
*P io_in[13] I
*I *419:io_in[13] I *D rift2Wrap
*CAP
1 io_in[13] 0.00436546
2 *419:io_in[13] 0.00140078
3 *5:11 0.00576624
4 *5:11 *81:11 1.23278e-05
*RES
1 io_in[13] *5:11 41.812 
2 *5:11 *419:io_in[13] 12.74 
*END

*D_NET *6 0.0101792
*CONN
*P io_in[14] I
*I *419:io_in[14] I *D rift2Wrap
*CAP
1 io_in[14] 0.00508961
2 *419:io_in[14] 0.00508961
*RES
1 io_in[14] *419:io_in[14] 48.312 
*END

*D_NET *7 0.0187768
*CONN
*P io_in[15] I
*I *419:io_in[15] I *D rift2Wrap
*CAP
1 io_in[15] 0.00113656
2 *419:io_in[15] 0.00111905
3 *7:9 0.00626874
4 *7:7 0.00628626
5 *7:9 *83:11 0.00396616
*RES
1 io_in[15] *7:7 14.12 
2 *7:7 *7:9 51.064 
3 *7:9 *419:io_in[15] 13.704 
*END

*D_NET *8 0.0149784
*CONN
*P io_in[16] I
*I *419:io_in[16] I *D rift2Wrap
*CAP
1 io_in[16] 0.00113656
2 *419:io_in[16] 0.00113942
3 *8:9 0.00635264
4 *8:7 0.00634977
*RES
1 io_in[16] *8:7 14.12 
2 *8:7 *8:9 46.28 
3 *8:9 *419:io_in[16] 13.704 
*END

*D_NET *9 0.0141762
*CONN
*P io_in[17] I
*I *419:io_in[17] I *D rift2Wrap
*CAP
1 io_in[17] 0.00113656
2 *419:io_in[17] 0.000980784
3 *9:11 0.00569557
4 *9:7 0.00585134
5 *419:io_in[17] io_out[17] 0.000511934
*RES
1 io_in[17] *9:7 14.12 
2 *9:7 *9:11 45.996 
3 *9:11 *419:io_in[17] 9.204 
*END

*D_NET *10 0.0128145
*CONN
*P io_in[18] I
*I *419:io_in[18] I *D rift2Wrap
*CAP
1 io_in[18] 0.00150022
2 *419:io_in[18] 0.00490703
3 *10:7 0.00640725
*RES
1 io_in[18] *10:7 17.24 
2 *10:7 *419:io_in[18] 47.296 
*END

*D_NET *11 0.0117746
*CONN
*P io_in[19] I
*I *419:io_in[19] I *D rift2Wrap
*CAP
1 io_in[19] 0.00513191
2 *419:io_in[19] 0.000755386
3 *11:9 0.0058873
*RES
1 io_in[19] *11:9 49.168 
2 *11:9 *419:io_in[19] 10.584 
*END

*D_NET *12 0.00719246
*CONN
*P io_in[1] I
*I *419:io_in[1] I *D rift2Wrap
*CAP
1 io_in[1] 0.00359623
2 *419:io_in[1] 0.00359623
*RES
1 io_in[1] *419:io_in[1] 39.16 
*END

*D_NET *13 0.0104765
*CONN
*P io_in[20] I
*I *419:io_in[20] I *D rift2Wrap
*CAP
1 io_in[20] 0.00448289
2 *419:io_in[20] 0.000755386
3 *13:11 0.00523827
*RES
1 io_in[20] *13:11 48.884 
2 *13:11 *419:io_in[20] 6.084 
*END

*D_NET *14 0.00943665
*CONN
*P io_in[21] I
*I *419:io_in[21] I *D rift2Wrap
*CAP
1 io_in[21] 0.00396294
2 *419:io_in[21] 0.000755386
3 *14:11 0.00471832
*RES
1 io_in[21] *14:11 44.1 
2 *14:11 *419:io_in[21] 6.084 
*END

*D_NET *15 0.00839675
*CONN
*P io_in[22] I
*I *419:io_in[22] I *D rift2Wrap
*CAP
1 io_in[22] 0.00419838
2 *419:io_in[22] 0.00419838
*RES
1 io_in[22] *419:io_in[22] 45.4 
*END

*D_NET *16 0.00735685
*CONN
*P io_in[23] I
*I *419:io_in[23] I *D rift2Wrap
*CAP
1 io_in[23] 0.00367843
2 *419:io_in[23] 0.00367843
*RES
1 io_in[23] *419:io_in[23] 40.616 
*END

*D_NET *17 0.0171959
*CONN
*P io_in[24] I
*I *419:io_in[24] I *D rift2Wrap
*CAP
1 io_in[24] 0.000790409
2 *419:io_in[24] 0.000963588
3 *17:11 0.00484616
4 *17:7 0.00467298
5 *17:11 *93:9 0.00592272
*RES
1 io_in[24] *17:7 11.624 
2 *17:7 *17:11 45.58 
3 *17:11 *419:io_in[24] 7.332 
*END

*D_NET *18 0.0169654
*CONN
*P io_in[25] I
*I *419:io_in[25] I *D rift2Wrap
*CAP
1 io_in[25] 0.000790409
2 *419:io_in[25] 0.000963588
3 *18:11 0.00480682
4 *18:7 0.00463364
5 *18:11 *94:9 0.00577095
*RES
1 io_in[25] *18:7 11.624 
2 *18:7 *18:11 45.164 
3 *18:11 *419:io_in[25] 7.332 
*END

*D_NET *19 0.01668
*CONN
*P io_in[26] I
*I *419:io_in[26] I *D rift2Wrap
*CAP
1 io_in[26] 0.000790409
2 *419:io_in[26] 0.000963588
3 *19:11 0.00471484
4 *19:7 0.00454166
5 *19:11 *95:11 0.00566949
*RES
1 io_in[26] *19:7 11.624 
2 *19:7 *19:11 44.748 
3 *19:11 *419:io_in[26] 7.332 
*END

*D_NET *20 0.0164307
*CONN
*P io_in[27] I
*I *419:io_in[27] I *D rift2Wrap
*CAP
1 io_in[27] 0.00163593
2 *419:io_in[27] 0.00653754
3 *20:7 0.00817347
4 *419:io_in[27] *57:11 8.37386e-05
*RES
1 io_in[27] *20:7 15.368 
2 *20:7 *419:io_in[27] 47.92 
*END

*D_NET *21 0.0162344
*CONN
*P io_in[28] I
*I *419:io_in[28] I *D rift2Wrap
*CAP
1 io_in[28] 0.00163593
2 *419:io_in[28] 0.00646044
3 *21:7 0.00809637
4 *419:io_in[28] io_oeb[27] 4.16187e-05
*RES
1 io_in[28] *21:7 15.368 
2 *21:7 *419:io_in[28] 47.504 
*END

*D_NET *22 0.0154719
*CONN
*P io_in[29] I
*I *419:io_in[29] I *D rift2Wrap
*CAP
1 io_in[29] 0.0013264
2 *419:io_in[29] 0.00640956
3 *22:7 0.00773596
*RES
1 io_in[29] *22:7 15.368 
2 *22:7 *419:io_in[29] 47.088 
*END

*D_NET *23 0.00830884
*CONN
*P io_in[2] I
*I *419:io_in[2] I *D rift2Wrap
*CAP
1 io_in[2] 0.00415442
2 *419:io_in[2] 0.00415442
*RES
1 io_in[2] *419:io_in[2] 43.32 
*END

*D_NET *24 0.0156716
*CONN
*P io_in[30] I
*I *419:io_in[30] I *D rift2Wrap
*CAP
1 io_in[30] 0.000790409
2 *419:io_in[30] 0.000963588
3 *24:11 0.00458966
4 *24:7 0.00441648
5 *24:11 *100:11 0.00491145
*RES
1 io_in[30] *24:7 11.624 
2 *24:7 *24:11 43.084 
3 *24:11 *419:io_in[30] 7.332 
*END

*D_NET *25 0.0154914
*CONN
*P io_in[31] I
*I *419:io_in[31] I *D rift2Wrap
*CAP
1 io_in[31] 0.00440227
2 *419:io_in[31] 0.000963588
3 *25:9 0.00536586
4 *25:9 *101:11 0.00475968
*RES
1 io_in[31] *25:9 49.792 
2 *25:9 *419:io_in[31] 11.832 
*END

*D_NET *26 0.0150983
*CONN
*P io_in[32] I
*I *419:io_in[32] I *D rift2Wrap
*CAP
1 io_in[32] 0.0013264
2 *419:io_in[32] 0.00622273
3 *26:7 0.00754913
*RES
1 io_in[32] *26:7 15.368 
2 *26:7 *419:io_in[32] 45.84 
*END

*D_NET *27 0.0149737
*CONN
*P io_in[33] I
*I *419:io_in[33] I *D rift2Wrap
*CAP
1 io_in[33] 0.0013264
2 *419:io_in[33] 0.00616045
3 *27:7 0.00748685
*RES
1 io_in[33] *27:7 15.368 
2 *27:7 *419:io_in[33] 45.424 
*END

*D_NET *28 0.0148491
*CONN
*P io_in[34] I
*I *419:io_in[34] I *D rift2Wrap
*CAP
1 io_in[34] 0.0013264
2 *419:io_in[34] 0.00609817
3 *28:7 0.00742457
*RES
1 io_in[34] *28:7 15.368 
2 *28:7 *419:io_in[34] 45.008 
*END

*D_NET *29 0.0117135
*CONN
*P io_in[35] I
*I *419:io_in[35] I *D rift2Wrap
*CAP
1 io_in[35] 0.00489319
2 *419:io_in[35] 0.000963569
3 *29:9 0.00585675
*RES
1 io_in[35] *29:9 48.128 
2 *29:9 *419:io_in[35] 11.832 
*END

*D_NET *30 0.00719461
*CONN
*P io_in[36] I
*I *419:io_in[36] I *D rift2Wrap
*CAP
1 io_in[36] 0.0035973
2 *419:io_in[36] 0.0035973
*RES
1 io_in[36] *419:io_in[36] 39.992 
*END

*D_NET *31 0.00425054
*CONN
*P io_in[37] I
*I *419:io_in[37] I *D rift2Wrap
*CAP
1 io_in[37] 0.00212527
2 *419:io_in[37] 0.00212527
*RES
1 io_in[37] *419:io_in[37] 26.888 
*END

*D_NET *32 0.0119731
*CONN
*P io_in[3] I
*I *419:io_in[3] I *D rift2Wrap
*CAP
1 io_in[3] 0.0035515
2 *419:io_in[3] 0.00191308
3 *32:11 0.00546458
4 *32:11 *108:9 0.00104397
*RES
1 io_in[3] *32:11 40.98 
2 *32:11 *419:io_in[3] 16.068 
*END

*D_NET *33 0.0182826
*CONN
*P io_in[4] I
*I *419:io_in[4] I *D rift2Wrap
*CAP
1 io_in[4] 0.00238012
2 *419:io_in[4] 0.00341373
3 *33:7 0.00579385
4 *419:io_in[4] *70:11 0.00468486
5 *419:io_in[4] *109:11 0.00201002
*RES
1 io_in[4] *33:7 23.48 
2 *33:7 *419:io_in[4] 47.296 
*END

*D_NET *34 0.0363662
*CONN
*P io_in[5] I
*I *419:io_in[5] I *D rift2Wrap
*CAP
1 io_in[5] 0.00235754
2 *419:io_in[5] 0.000745196
3 *34:9 0.00274127
4 *34:7 0.00435361
5 *34:9 *71:11 0.010163
6 *34:9 *72:9 0.00400123
7 *34:9 *110:9 0.0120044
*RES
1 io_in[5] *34:7 23.272 
2 *34:7 *34:9 50.024 
3 *34:9 *419:io_in[5] 11.208 
*END

*D_NET *35 0.0206381
*CONN
*P io_in[6] I
*I *419:io_in[6] I *D rift2Wrap
*CAP
1 io_in[6] 0.00119074
2 *419:io_in[6] 0.00193347
3 *35:9 0.00912828
4 *35:7 0.00838556
*RES
1 io_in[6] *35:7 14.12 
2 *35:7 *35:9 63.752 
3 *35:9 *419:io_in[6] 20.36 
*END

*D_NET *36 0.0340139
*CONN
*P io_in[7] I
*I *419:io_in[7] I *D rift2Wrap
*CAP
1 io_in[7] 0.00235752
2 *419:io_in[7] 0.000766711
3 *36:9 0.00454823
4 *36:7 0.00613903
5 *36:9 *73:9 0.0131747
6 *36:9 *74:9 0.0070277
*RES
1 io_in[7] *36:7 23.272 
2 *36:7 *36:9 57.512 
3 *36:9 *419:io_in[7] 11.208 
*END

*D_NET *37 0.0379743
*CONN
*P io_in[8] I
*I *419:io_in[8] I *D rift2Wrap
*CAP
1 io_in[8] 0.00235754
2 *419:io_in[8] 0.000766711
3 *37:9 0.00276437
4 *37:7 0.00435519
5 *37:9 *74:9 0.0106466
6 *37:9 *75:9 0.0045834
7 *37:9 *113:9 0.0125006
*RES
1 io_in[8] *37:7 23.272 
2 *37:7 *37:9 51.272 
3 *37:9 *419:io_in[8] 11.208 
*END

*D_NET *38 0.0167643
*CONN
*P io_in[9] I
*I *419:io_in[9] I *D rift2Wrap
*CAP
1 io_in[9] 0.00145946
2 *419:io_in[9] 0.00191197
3 *38:11 0.0069227
4 *38:7 0.00647019
*RES
1 io_in[9] *38:7 14.12 
2 *38:7 *38:11 49.532 
3 *38:11 *419:io_in[9] 15.86 
*END

*D_NET *39 0.00858502
*CONN
*P io_oeb[0] O
*I *419:io_oeb[0] O *D rift2Wrap
*CAP
1 io_oeb[0] 0.00429251
2 *419:io_oeb[0] 0.00429251
*RES
1 *419:io_oeb[0] io_oeb[0] 43.736 
*END

*D_NET *40 0.0239566
*CONN
*P io_oeb[10] O
*I *419:io_oeb[10] O *D rift2Wrap
*CAP
1 io_oeb[10] 0.00238012
2 *419:io_oeb[10] 0.000722589
3 *40:9 0.00656205
4 *40:7 0.00490452
5 *40:9 *78:11 0.00938732
*RES
1 *419:io_oeb[10] *40:7 11 
2 *40:7 *40:9 48.152 
3 *40:9 io_oeb[10] 23.48 
*END

*D_NET *41 0.0205115
*CONN
*P io_oeb[11] O
*I *419:io_oeb[11] O *D rift2Wrap
*CAP
1 io_oeb[11] 0.00238012
2 *419:io_oeb[11] 0.000722589
3 *41:11 0.00609518
4 *41:7 0.00443764
5 *41:11 *79:9 0.00687593
6 *419:io_in[12] io_oeb[11] 0
*RES
1 *419:io_oeb[11] *41:7 11 
2 *41:7 *41:11 46.204 
3 *41:11 io_oeb[11] 18.98 
*END

*D_NET *42 0.0145777
*CONN
*P io_oeb[12] O
*I *419:io_oeb[12] O *D rift2Wrap
*CAP
1 io_oeb[12] 0.00235863
2 *419:io_oeb[12] 0.00493024
3 *42:9 0.00728886
*RES
1 *419:io_oeb[12] *42:9 46.464 
2 *42:9 io_oeb[12] 23.48 
*END

*D_NET *43 0.0126189
*CONN
*P io_oeb[13] O
*I *419:io_oeb[13] O *D rift2Wrap
*CAP
1 io_oeb[13] 0.00119074
2 *419:io_oeb[13] 0.00511871
3 *43:9 0.00630945
*RES
1 *419:io_oeb[13] *43:9 49.584 
2 *43:9 io_oeb[13] 14.12 
*END

*D_NET *44 0.0114764
*CONN
*P io_oeb[14] O
*I *419:io_oeb[14] O *D rift2Wrap
*CAP
1 io_oeb[14] 0.00119074
2 *419:io_oeb[14] 0.00454745
3 *44:11 0.00573819
*RES
1 *419:io_oeb[14] *44:11 47.844 
2 *44:11 io_oeb[14] 9.62 
*END

*D_NET *45 0.0109608
*CONN
*P io_oeb[15] O
*I *419:io_oeb[15] O *D rift2Wrap
*CAP
1 io_oeb[15] 0.00150022
2 *419:io_oeb[15] 0.00398016
3 *45:11 0.00548038
4 io_oeb[15] *83:7 0
*RES
1 *419:io_oeb[15] *45:11 43.268 
2 *45:11 io_oeb[15] 12.74 
*END

*D_NET *46 0.0099639
*CONN
*P io_oeb[16] O
*I *419:io_oeb[16] O *D rift2Wrap
*CAP
1 io_oeb[16] 0.00113656
2 *419:io_oeb[16] 0.00384539
3 *46:11 0.00498195
*RES
1 *419:io_oeb[16] *46:11 41.604 
2 *46:11 io_oeb[16] 9.62 
*END

*D_NET *47 0.00866803
*CONN
*P io_oeb[17] O
*I *419:io_oeb[17] O *D rift2Wrap
*CAP
1 io_oeb[17] 0.00433401
2 *419:io_oeb[17] 0.00433401
*RES
1 *419:io_oeb[17] io_oeb[17] 46.648 
*END

*D_NET *48 0.00758292
*CONN
*P io_oeb[18] O
*I *419:io_oeb[18] O *D rift2Wrap
*CAP
1 io_oeb[18] 0.00379146
2 *419:io_oeb[18] 0.00379146
*RES
1 *419:io_oeb[18] io_oeb[18] 41.656 
*END

*D_NET *49 0.00654302
*CONN
*P io_oeb[19] O
*I *419:io_oeb[19] O *D rift2Wrap
*CAP
1 io_oeb[19] 0.00327151
2 *419:io_oeb[19] 0.00327151
*RES
1 *419:io_oeb[19] io_oeb[19] 36.872 
*END

*D_NET *50 0.00763681
*CONN
*P io_oeb[1] O
*I *419:io_oeb[1] O *D rift2Wrap
*CAP
1 io_oeb[1] 0.0038184
2 *419:io_oeb[1] 0.0038184
*RES
1 *419:io_oeb[1] io_oeb[1] 38.744 
*END

*D_NET *51 0.00550312
*CONN
*P io_oeb[20] O
*I *419:io_oeb[20] O *D rift2Wrap
*CAP
1 io_oeb[20] 0.00275156
2 *419:io_oeb[20] 0.00275156
*RES
1 *419:io_oeb[20] io_oeb[20] 32.088 
*END

*D_NET *52 0.00449857
*CONN
*P io_oeb[21] O
*I *419:io_oeb[21] O *D rift2Wrap
*CAP
1 io_oeb[21] 0.00224929
2 *419:io_oeb[21] 0.00224929
*RES
1 *419:io_oeb[21] io_oeb[21] 19.136 
*END

*D_NET *53 0.00568397
*CONN
*P io_oeb[22] O
*I *419:io_oeb[22] O *D rift2Wrap
*CAP
1 io_oeb[22] 0.00284199
2 *419:io_oeb[22] 0.00284199
*RES
1 *419:io_oeb[22] io_oeb[22] 32.92 
*END

*D_NET *54 0.00672387
*CONN
*P io_oeb[23] O
*I *419:io_oeb[23] O *D rift2Wrap
*CAP
1 io_oeb[23] 0.00336194
2 *419:io_oeb[23] 0.00336194
*RES
1 *419:io_oeb[23] io_oeb[23] 37.704 
*END

*D_NET *55 0.0123598
*CONN
*P io_oeb[24] O
*I *419:io_oeb[24] O *D rift2Wrap
*CAP
1 io_oeb[24] 0.0013479
2 *419:io_oeb[24] 0.00483201
3 *55:11 0.00617991
*RES
1 *419:io_oeb[24] *55:11 40.356 
2 *55:11 io_oeb[24] 10.868 
*END

*D_NET *56 0.0120582
*CONN
*P io_oeb[25] O
*I *419:io_oeb[25] O *D rift2Wrap
*CAP
1 io_oeb[25] 0.0013479
2 *419:io_oeb[25] 0.00468122
3 *56:11 0.00602912
*RES
1 *419:io_oeb[25] *56:11 39.94 
2 *56:11 io_oeb[25] 10.868 
*END

*D_NET *57 0.0103674
*CONN
*P io_oeb[26] O
*I *419:io_oeb[26] O *D rift2Wrap
*CAP
1 io_oeb[26] 0.00139311
2 *419:io_oeb[26] 0.0037487
3 *57:11 0.00514181
4 *419:io_in[27] *57:11 8.37386e-05
*RES
1 *419:io_oeb[26] *57:11 39.108 
2 *57:11 io_oeb[26] 11.284 
*END

*D_NET *58 0.0100928
*CONN
*P io_oeb[27] O
*I *419:io_oeb[27] O *D rift2Wrap
*CAP
1 io_oeb[27] 0.00502561
2 *419:io_oeb[27] 0.00502561
3 *419:io_in[28] io_oeb[27] 4.16187e-05
*RES
1 *419:io_oeb[27] io_oeb[27] 49.976 
*END

*D_NET *59 0.00997351
*CONN
*P io_oeb[28] O
*I *419:io_oeb[28] O *D rift2Wrap
*CAP
1 io_oeb[28] 0.00498675
2 *419:io_oeb[28] 0.00498675
*RES
1 *419:io_oeb[28] io_oeb[28] 49.56 
*END

*D_NET *60 0.01156
*CONN
*P io_oeb[29] O
*I *419:io_oeb[29] O *D rift2Wrap
*CAP
1 io_oeb[29] 0.00578
2 *419:io_oeb[29] 0.00578
*RES
1 *419:io_oeb[29] io_oeb[29] 49.144 
*END

*D_NET *61 0.01018
*CONN
*P io_oeb[2] O
*I *419:io_oeb[2] O *D rift2Wrap
*CAP
1 io_oeb[2] 0.00112292
2 *419:io_oeb[2] 0.00396709
3 *61:11 0.00509002
*RES
1 *419:io_oeb[2] *61:11 43.476 
2 *61:11 io_oeb[2] 8.996 
*END

*D_NET *62 0.0114354
*CONN
*P io_oeb[30] O
*I *419:io_oeb[30] O *D rift2Wrap
*CAP
1 io_oeb[30] 0.00571772
2 *419:io_oeb[30] 0.00571772
*RES
1 *419:io_oeb[30] io_oeb[30] 48.728 
*END

*D_NET *63 0.0119083
*CONN
*P io_oeb[31] O
*I *419:io_oeb[31] O *D rift2Wrap
*CAP
1 io_oeb[31] 0.00595413
2 *419:io_oeb[31] 0.00595413
*RES
1 *419:io_oeb[31] io_oeb[31] 48.312 
*END

*D_NET *64 0.0117451
*CONN
*P io_oeb[32] O
*I *419:io_oeb[32] O *D rift2Wrap
*CAP
1 io_oeb[32] 0.00587254
2 *419:io_oeb[32] 0.00587254
*RES
1 *419:io_oeb[32] io_oeb[32] 47.896 
*END

*D_NET *65 0.0104074
*CONN
*P io_oeb[33] O
*I *419:io_oeb[33] O *D rift2Wrap
*CAP
1 io_oeb[33] 0.00430723
2 *419:io_oeb[33] 0.00430723
3 io_oeb[33] *103:11 0.00179297
*RES
1 *419:io_oeb[33] io_oeb[33] 47.48 
*END

*D_NET *66 0.00994388
*CONN
*P io_oeb[34] O
*I *419:io_oeb[34] O *D rift2Wrap
*CAP
1 io_oeb[34] 0.00415973
2 *419:io_oeb[34] 0.00415973
3 io_oeb[34] *104:11 0.00162443
*RES
1 *419:io_oeb[34] io_oeb[34] 47.064 
*END

*D_NET *67 0.00863813
*CONN
*P io_oeb[35] O
*I *419:io_oeb[35] O *D rift2Wrap
*CAP
1 io_oeb[35] 0.00431907
2 *419:io_oeb[35] 0.00431907
*RES
1 *419:io_oeb[35] io_oeb[35] 46.648 
*END

*D_NET *68 0.00429672
*CONN
*P io_oeb[36] O
*I *419:io_oeb[36] O *D rift2Wrap
*CAP
1 io_oeb[36] 0.00214836
2 *419:io_oeb[36] 0.00214836
*RES
1 *419:io_oeb[36] io_oeb[36] 26.68 
*END

*D_NET *69 0.00861706
*CONN
*P io_oeb[37] O
*I *419:io_oeb[37] O *D rift2Wrap
*CAP
1 io_oeb[37] 0.00430853
2 *419:io_oeb[37] 0.00430853
*RES
1 *419:io_oeb[37] io_oeb[37] 39.992 
*END

*D_NET *70 0.0167079
*CONN
*P io_oeb[3] O
*I *419:io_oeb[3] O *D rift2Wrap
*CAP
1 io_oeb[3] 0.00233602
2 *419:io_oeb[3] 0.00367553
3 *70:11 0.00601155
4 *419:io_in[4] *70:11 0.00468486
*RES
1 *419:io_oeb[3] *70:11 47.428 
2 *70:11 io_oeb[3] 18.772 
*END

*D_NET *71 0.0299059
*CONN
*P io_oeb[4] O
*I *419:io_oeb[4] O *D rift2Wrap
*CAP
1 io_oeb[4] 0.00231341
2 *419:io_oeb[4] 0.000767802
3 *71:11 0.00491565
4 *71:7 0.00337004
5 *71:11 *109:11 0.00837606
6 *34:9 *71:11 0.010163
*RES
1 *419:io_oeb[4] *71:7 11.416 