*SPEF "ieee 1481-1999"
*DESIGN "user_project_wrapper"
*DATE "11:11:11 Fri 11 11, 1111"
*VENDOR "OpenRCX"
*PROGRAM "Parallel Extraction"
*VERSION "1.0"
*DESIGN_FLOW "NAME_SCOPE LOCAL" "PIN_CAP NONE"
*DIVIDER /
*DELIMITER :
*BUS_DELIMITER []
*T_UNIT 1 NS
*C_UNIT 1 PF
*R_UNIT 1 OHM
*L_UNIT 1 HENRY

*NAME_MAP
*1 io_in[0]
*2 io_in[10]
*3 io_in[11]
*4 io_in[12]
*5 io_in[13]
*6 io_in[14]
*7 io_in[15]
*8 io_in[16]
*9 io_in[17]
*10 io_in[18]
*11 io_in[19]
*12 io_in[1]
*13 io_in[20]
*14 io_in[21]
*15 io_in[22]
*16 io_in[23]
*17 io_in[24]
*18 io_in[25]
*19 io_in[26]
*20 io_in[27]
*21 io_in[28]
*22 io_in[29]
*23 io_in[2]
*24 io_in[30]
*25 io_in[31]
*26 io_in[32]
*27 io_in[33]
*28 io_in[34]
*29 io_in[35]
*30 io_in[36]
*31 io_in[37]
*32 io_in[3]
*33 io_in[4]
*34 io_in[5]
*35 io_in[6]
*36 io_in[7]
*37 io_in[8]
*38 io_in[9]
*39 io_oeb[0]
*40 io_oeb[10]
*41 io_oeb[11]
*42 io_oeb[12]
*43 io_oeb[13]
*44 io_oeb[14]
*45 io_oeb[15]
*46 io_oeb[16]
*47 io_oeb[17]
*48 io_oeb[18]
*49 io_oeb[19]
*50 io_oeb[1]
*51 io_oeb[20]
*52 io_oeb[21]
*53 io_oeb[22]
*54 io_oeb[23]
*55 io_oeb[24]
*56 io_oeb[25]
*57 io_oeb[26]
*58 io_oeb[27]
*59 io_oeb[28]
*60 io_oeb[29]
*61 io_oeb[2]
*62 io_oeb[30]
*63 io_oeb[31]
*64 io_oeb[32]
*65 io_oeb[33]
*66 io_oeb[34]
*67 io_oeb[35]
*68 io_oeb[36]
*69 io_oeb[37]
*70 io_oeb[3]
*71 io_oeb[4]
*72 io_oeb[5]
*73 io_oeb[6]
*74 io_oeb[7]
*75 io_oeb[8]
*76 io_oeb[9]
*77 io_out[0]
*78 io_out[10]
*79 io_out[11]
*80 io_out[12]
*81 io_out[13]
*82 io_out[14]
*83 io_out[15]
*84 io_out[16]
*85 io_out[17]
*86 io_out[18]
*87 io_out[19]
*88 io_out[1]
*89 io_out[20]
*90 io_out[21]
*91 io_out[22]
*92 io_out[23]
*93 io_out[24]
*94 io_out[25]
*95 io_out[26]
*96 io_out[27]
*97 io_out[28]
*98 io_out[29]
*99 io_out[2]
*100 io_out[30]
*101 io_out[31]
*102 io_out[32]
*103 io_out[33]
*104 io_out[34]
*105 io_out[35]
*106 io_out[36]
*107 io_out[37]
*108 io_out[3]
*109 io_out[4]
*110 io_out[5]
*111 io_out[6]
*112 io_out[7]
*113 io_out[8]
*114 io_out[9]
*115 la_data_in[0]
*116 la_data_in[10]
*117 la_data_in[11]
*118 la_data_in[12]
*119 la_data_in[13]
*120 la_data_in[14]
*121 la_data_in[15]
*122 la_data_in[16]
*123 la_data_in[17]
*124 la_data_in[18]
*125 la_data_in[19]
*126 la_data_in[1]
*127 la_data_in[20]
*128 la_data_in[21]
*129 la_data_in[22]
*130 la_data_in[23]
*131 la_data_in[24]
*132 la_data_in[25]
*133 la_data_in[26]
*134 la_data_in[27]
*135 la_data_in[28]
*136 la_data_in[29]
*137 la_data_in[2]
*138 la_data_in[30]
*139 la_data_in[31]
*140 la_data_in[32]
*141 la_data_in[33]
*142 la_data_in[34]
*143 la_data_in[35]
*144 la_data_in[36]
*145 la_data_in[37]
*146 la_data_in[38]
*147 la_data_in[39]
*148 la_data_in[3]
*149 la_data_in[40]
*150 la_data_in[41]
*151 la_data_in[42]
*152 la_data_in[43]
*153 la_data_in[44]
*154 la_data_in[45]
*155 la_data_in[46]
*156 la_data_in[47]
*157 la_data_in[48]
*158 la_data_in[49]
*159 la_data_in[4]
*160 la_data_in[50]
*161 la_data_in[51]
*162 la_data_in[52]
*163 la_data_in[53]
*164 la_data_in[54]
*165 la_data_in[55]
*166 la_data_in[56]
*167 la_data_in[57]
*168 la_data_in[58]
*169 la_data_in[59]
*170 la_data_in[5]
*171 la_data_in[60]
*172 la_data_in[61]
*173 la_data_in[62]
*174 la_data_in[63]
*175 la_data_in[6]
*176 la_data_in[7]
*177 la_data_in[8]
*178 la_data_in[9]
*179 la_data_out[0]
*180 la_data_out[10]
*181 la_data_out[11]
*182 la_data_out[12]
*183 la_data_out[13]
*184 la_data_out[14]
*185 la_data_out[15]
*186 la_data_out[16]
*187 la_data_out[17]
*188 la_data_out[18]
*189 la_data_out[19]
*190 la_data_out[1]
*191 la_data_out[20]
*192 la_data_out[21]
*193 la_data_out[22]
*194 la_data_out[23]
*195 la_data_out[24]
*196 la_data_out[25]
*197 la_data_out[26]
*198 la_data_out[27]
*199 la_data_out[28]
*200 la_data_out[29]
*201 la_data_out[2]
*202 la_data_out[30]
*203 la_data_out[31]
*204 la_data_out[32]
*205 la_data_out[33]
*206 la_data_out[34]
*207 la_data_out[35]
*208 la_data_out[36]
*209 la_data_out[37]
*210 la_data_out[38]
*211 la_data_out[39]
*212 la_data_out[3]
*213 la_data_out[40]
*214 la_data_out[41]
*215 la_data_out[42]
*216 la_data_out[43]
*217 la_data_out[44]
*218 la_data_out[45]
*219 la_data_out[46]
*220 la_data_out[47]
*221 la_data_out[48]
*222 la_data_out[49]
*223 la_data_out[4]
*224 la_data_out[50]
*225 la_data_out[51]
*226 la_data_out[52]
*227 la_data_out[53]
*228 la_data_out[54]
*229 la_data_out[55]
*230 la_data_out[56]
*231 la_data_out[57]
*232 la_data_out[58]
*233 la_data_out[59]
*234 la_data_out[5]
*235 la_data_out[60]
*236 la_data_out[61]
*237 la_data_out[62]
*238 la_data_out[63]
*239 la_data_out[6]
*240 la_data_out[7]
*241 la_data_out[8]
*242 la_data_out[9]
*243 la_oenb[0]
*244 la_oenb[10]
*245 la_oenb[11]
*246 la_oenb[12]
*247 la_oenb[13]
*248 la_oenb[14]
*249 la_oenb[15]
*250 la_oenb[16]
*251 la_oenb[17]
*252 la_oenb[18]
*253 la_oenb[19]
*254 la_oenb[1]
*255 la_oenb[20]
*256 la_oenb[21]
*257 la_oenb[22]
*258 la_oenb[23]
*259 la_oenb[24]
*260 la_oenb[25]
*261 la_oenb[26]
*262 la_oenb[27]
*263 la_oenb[28]
*264 la_oenb[29]
*265 la_oenb[2]
*266 la_oenb[30]
*267 la_oenb[31]
*268 la_oenb[32]
*269 la_oenb[33]
*270 la_oenb[34]
*271 la_oenb[35]
*272 la_oenb[36]
*273 la_oenb[37]
*274 la_oenb[38]
*275 la_oenb[39]
*276 la_oenb[3]
*277 la_oenb[40]
*278 la_oenb[41]
*279 la_oenb[42]
*280 la_oenb[43]
*281 la_oenb[44]
*282 la_oenb[45]
*283 la_oenb[46]
*284 la_oenb[47]
*285 la_oenb[48]
*286 la_oenb[49]
*287 la_oenb[4]
*288 la_oenb[50]
*289 la_oenb[51]
*290 la_oenb[52]
*291 la_oenb[53]
*292 la_oenb[54]
*293 la_oenb[55]
*294 la_oenb[56]
*295 la_oenb[57]
*296 la_oenb[58]
*297 la_oenb[59]
*298 la_oenb[5]
*299 la_oenb[60]
*300 la_oenb[61]
*301 la_oenb[62]
*302 la_oenb[63]
*303 la_oenb[6]
*304 la_oenb[7]
*305 la_oenb[8]
*306 la_oenb[9]
*307 user_clock2
*308 user_irq[0]
*309 user_irq[1]
*310 user_irq[2]
*313 wb_clk_i
*314 wb_rst_i
*315 wbs_ack_o
*316 wbs_adr_i[0]
*317 wbs_adr_i[10]
*318 wbs_adr_i[11]
*319 wbs_adr_i[12]
*320 wbs_adr_i[13]
*321 wbs_adr_i[14]
*322 wbs_adr_i[15]
*323 wbs_adr_i[16]
*324 wbs_adr_i[17]
*325 wbs_adr_i[18]
*326 wbs_adr_i[19]
*327 wbs_adr_i[1]
*328 wbs_adr_i[20]
*329 wbs_adr_i[21]
*330 wbs_adr_i[22]
*331 wbs_adr_i[23]
*332 wbs_adr_i[24]
*333 wbs_adr_i[25]
*334 wbs_adr_i[26]
*335 wbs_adr_i[27]
*336 wbs_adr_i[28]
*337 wbs_adr_i[29]
*338 wbs_adr_i[2]
*339 wbs_adr_i[30]
*340 wbs_adr_i[31]
*341 wbs_adr_i[3]
*342 wbs_adr_i[4]
*343 wbs_adr_i[5]
*344 wbs_adr_i[6]
*345 wbs_adr_i[7]
*346 wbs_adr_i[8]
*347 wbs_adr_i[9]
*348 wbs_cyc_i
*349 wbs_dat_i[0]
*350 wbs_dat_i[10]
*351 wbs_dat_i[11]
*352 wbs_dat_i[12]
*353 wbs_dat_i[13]
*354 wbs_dat_i[14]
*355 wbs_dat_i[15]
*356 wbs_dat_i[16]
*357 wbs_dat_i[17]
*358 wbs_dat_i[18]
*359 wbs_dat_i[19]
*360 wbs_dat_i[1]
*361 wbs_dat_i[20]
*362 wbs_dat_i[21]
*363 wbs_dat_i[22]
*364 wbs_dat_i[23]
*365 wbs_dat_i[24]
*366 wbs_dat_i[25]
*367 wbs_dat_i[26]
*368 wbs_dat_i[27]
*369 wbs_dat_i[28]
*370 wbs_dat_i[29]
*371 wbs_dat_i[2]
*372 wbs_dat_i[30]
*373 wbs_dat_i[31]
*374 wbs_dat_i[3]
*375 wbs_dat_i[4]
*376 wbs_dat_i[5]
*377 wbs_dat_i[6]
*378 wbs_dat_i[7]
*379 wbs_dat_i[8]
*380 wbs_dat_i[9]
*381 wbs_dat_o[0]
*382 wbs_dat_o[10]
*383 wbs_dat_o[11]
*384 wbs_dat_o[12]
*385 wbs_dat_o[13]
*386 wbs_dat_o[14]
*387 wbs_dat_o[15]
*388 wbs_dat_o[16]
*389 wbs_dat_o[17]
*390 wbs_dat_o[18]
*391 wbs_dat_o[19]
*392 wbs_dat_o[1]
*393 wbs_dat_o[20]
*394 wbs_dat_o[21]
*395 wbs_dat_o[22]
*396 wbs_dat_o[23]
*397 wbs_dat_o[24]
*398 wbs_dat_o[25]
*399 wbs_dat_o[26]
*400 wbs_dat_o[27]
*401 wbs_dat_o[28]
*402 wbs_dat_o[29]
*403 wbs_dat_o[2]
*404 wbs_dat_o[30]
*405 wbs_dat_o[31]
*406 wbs_dat_o[3]
*407 wbs_dat_o[4]
*408 wbs_dat_o[5]
*409 wbs_dat_o[6]
*410 wbs_dat_o[7]
*411 wbs_dat_o[8]
*412 wbs_dat_o[9]
*413 wbs_sel_i[0]
*414 wbs_sel_i[1]
*415 wbs_sel_i[2]
*416 wbs_sel_i[3]
*417 wbs_stb_i
*418 wbs_we_i
*419 i_Rift2Wrap

*PORTS
io_in[0] I
io_in[10] I
io_in[11] I
io_in[12] I
io_in[13] I
io_in[14] I
io_in[15] I
io_in[16] I
io_in[17] I
io_in[18] I
io_in[19] I
io_in[1] I
io_in[20] I
io_in[21] I
io_in[22] I
io_in[23] I
io_in[24] I
io_in[25] I
io_in[26] I
io_in[27] I
io_in[28] I
io_in[29] I
io_in[2] I
io_in[30] I
io_in[31] I
io_in[32] I
io_in[33] I
io_in[34] I
io_in[35] I
io_in[36] I
io_in[37] I
io_in[3] I
io_in[4] I
io_in[5] I
io_in[6] I
io_in[7] I
io_in[8] I
io_in[9] I
io_oeb[0] O
io_oeb[10] O
io_oeb[11] O
io_oeb[12] O
io_oeb[13] O
io_oeb[14] O
io_oeb[15] O
io_oeb[16] O
io_oeb[17] O
io_oeb[18] O
io_oeb[19] O
io_oeb[1] O
io_oeb[20] O
io_oeb[21] O
io_oeb[22] O
io_oeb[23] O
io_oeb[24] O
io_oeb[25] O
io_oeb[26] O
io_oeb[27] O
io_oeb[28] O
io_oeb[29] O
io_oeb[2] O
io_oeb[30] O
io_oeb[31] O
io_oeb[32] O
io_oeb[33] O
io_oeb[34] O
io_oeb[35] O
io_oeb[36] O
io_oeb[37] O
io_oeb[3] O
io_oeb[4] O
io_oeb[5] O
io_oeb[6] O
io_oeb[7] O
io_oeb[8] O
io_oeb[9] O
io_out[0] O
io_out[10] O
io_out[11] O
io_out[12] O
io_out[13] O
io_out[14] O
io_out[15] O
io_out[16] O
io_out[17] O
io_out[18] O
io_out[19] O
io_out[1] O
io_out[20] O
io_out[21] O
io_out[22] O
io_out[23] O
io_out[24] O
io_out[25] O
io_out[26] O
io_out[27] O
io_out[28] O
io_out[29] O
io_out[2] O
io_out[30] O
io_out[31] O
io_out[32] O
io_out[33] O
io_out[34] O
io_out[35] O
io_out[36] O
io_out[37] O
io_out[3] O
io_out[4] O
io_out[5] O
io_out[6] O
io_out[7] O
io_out[8] O
io_out[9] O
la_data_in[0] I
la_data_in[10] I
la_data_in[11] I
la_data_in[12] I
la_data_in[13] I
la_data_in[14] I
la_data_in[15] I
la_data_in[16] I
la_data_in[17] I
la_data_in[18] I
la_data_in[19] I
la_data_in[1] I
la_data_in[20] I
la_data_in[21] I
la_data_in[22] I
la_data_in[23] I
la_data_in[24] I
la_data_in[25] I
la_data_in[26] I
la_data_in[27] I
la_data_in[28] I
la_data_in[29] I
la_data_in[2] I
la_data_in[30] I
la_data_in[31] I
la_data_in[32] I
la_data_in[33] I
la_data_in[34] I
la_data_in[35] I
la_data_in[36] I
la_data_in[37] I
la_data_in[38] I
la_data_in[39] I
la_data_in[3] I
la_data_in[40] I
la_data_in[41] I
la_data_in[42] I
la_data_in[43] I
la_data_in[44] I
la_data_in[45] I
la_data_in[46] I
la_data_in[47] I
la_data_in[48] I
la_data_in[49] I
la_data_in[4] I
la_data_in[50] I
la_data_in[51] I
la_data_in[52] I
la_data_in[53] I
la_data_in[54] I
la_data_in[55] I
la_data_in[56] I
la_data_in[57] I
la_data_in[58] I
la_data_in[59] I
la_data_in[5] I
la_data_in[60] I
la_data_in[61] I
la_data_in[62] I
la_data_in[63] I
la_data_in[6] I
la_data_in[7] I
la_data_in[8] I
la_data_in[9] I
la_data_out[0] O
la_data_out[10] O
la_data_out[11] O
la_data_out[12] O
la_data_out[13] O
la_data_out[14] O
la_data_out[15] O
la_data_out[16] O
la_data_out[17] O
la_data_out[18] O
la_data_out[19] O
la_data_out[1] O
la_data_out[20] O
la_data_out[21] O
la_data_out[22] O
la_data_out[23] O
la_data_out[24] O
la_data_out[25] O
la_data_out[26] O
la_data_out[27] O
la_data_out[28] O
la_data_out[29] O
la_data_out[2] O
la_data_out[30] O
la_data_out[31] O
la_data_out[32] O
la_data_out[33] O
la_data_out[34] O
la_data_out[35] O
la_data_out[36] O
la_data_out[37] O
la_data_out[38] O
la_data_out[39] O
la_data_out[3] O
la_data_out[40] O
la_data_out[41] O
la_data_out[42] O
la_data_out[43] O
la_data_out[44] O
la_data_out[45] O
la_data_out[46] O
la_data_out[47] O
la_data_out[48] O
la_data_out[49] O
la_data_out[4] O
la_data_out[50] O
la_data_out[51] O
la_data_out[52] O
la_data_out[53] O
la_data_out[54] O
la_data_out[55] O
la_data_out[56] O
la_data_out[57] O
la_data_out[58] O
la_data_out[59] O
la_data_out[5] O
la_data_out[60] O
la_data_out[61] O
la_data_out[62] O
la_data_out[63] O
la_data_out[6] O
la_data_out[7] O
la_data_out[8] O
la_data_out[9] O
la_oenb[0] I
la_oenb[10] I
la_oenb[11] I
la_oenb[12] I
la_oenb[13] I
la_oenb[14] I
la_oenb[15] I
la_oenb[16] I
la_oenb[17] I
la_oenb[18] I
la_oenb[19] I
la_oenb[1] I
la_oenb[20] I
la_oenb[21] I
la_oenb[22] I
la_oenb[23] I
la_oenb[24] I
la_oenb[25] I
la_oenb[26] I
la_oenb[27] I
la_oenb[28] I
la_oenb[29] I
la_oenb[2] I
la_oenb[30] I
la_oenb[31] I
la_oenb[32] I
la_oenb[33] I
la_oenb[34] I
la_oenb[35] I
la_oenb[36] I
la_oenb[37] I
la_oenb[38] I
la_oenb[39] I
la_oenb[3] I
la_oenb[40] I
la_oenb[41] I
la_oenb[42] I
la_oenb[43] I
la_oenb[44] I
la_oenb[45] I
la_oenb[46] I
la_oenb[47] I
la_oenb[48] I
la_oenb[49] I
la_oenb[4] I
la_oenb[50] I
la_oenb[51] I
la_oenb[52] I
la_oenb[53] I
la_oenb[54] I
la_oenb[55] I
la_oenb[56] I
la_oenb[57] I
la_oenb[58] I
la_oenb[59] I
la_oenb[5] I
la_oenb[60] I
la_oenb[61] I
la_oenb[62] I
la_oenb[63] I
la_oenb[6] I
la_oenb[7] I
la_oenb[8] I
la_oenb[9] I
user_clock2 I
user_irq[0] O
user_irq[1] O
user_irq[2] O
wb_clk_i I
wb_rst_i I
wbs_ack_o O
wbs_adr_i[0] I
wbs_adr_i[10] I
wbs_adr_i[11] I
wbs_adr_i[12] I
wbs_adr_i[13] I
wbs_adr_i[14] I
wbs_adr_i[15] I
wbs_adr_i[16] I
wbs_adr_i[17] I
wbs_adr_i[18] I
wbs_adr_i[19] I
wbs_adr_i[1] I
wbs_adr_i[20] I
wbs_adr_i[21] I
wbs_adr_i[22] I
wbs_adr_i[23] I
wbs_adr_i[24] I
wbs_adr_i[25] I
wbs_adr_i[26] I
wbs_adr_i[27] I
wbs_adr_i[28] I
wbs_adr_i[29] I
wbs_adr_i[2] I
wbs_adr_i[30] I
wbs_adr_i[31] I
wbs_adr_i[3] I
wbs_adr_i[4] I
wbs_adr_i[5] I
wbs_adr_i[6] I
wbs_adr_i[7] I
wbs_adr_i[8] I
wbs_adr_i[9] I
wbs_cyc_i I
wbs_dat_i[0] I
wbs_dat_i[10] I
wbs_dat_i[11] I
wbs_dat_i[12] I
wbs_dat_i[13] I
wbs_dat_i[14] I
wbs_dat_i[15] I
wbs_dat_i[16] I
wbs_dat_i[17] I
wbs_dat_i[18] I
wbs_dat_i[19] I
wbs_dat_i[1] I
wbs_dat_i[20] I
wbs_dat_i[21] I
wbs_dat_i[22] I
wbs_dat_i[23] I
wbs_dat_i[24] I
wbs_dat_i[25] I
wbs_dat_i[26] I
wbs_dat_i[27] I
wbs_dat_i[28] I
wbs_dat_i[29] I
wbs_dat_i[2] I
wbs_dat_i[30] I
wbs_dat_i[31] I
wbs_dat_i[3] I
wbs_dat_i[4] I
wbs_dat_i[5] I
wbs_dat_i[6] I
wbs_dat_i[7] I
wbs_dat_i[8] I
wbs_dat_i[9] I
wbs_dat_o[0] O
wbs_dat_o[10] O
wbs_dat_o[11] O
wbs_dat_o[12] O
wbs_dat_o[13] O
wbs_dat_o[14] O
wbs_dat_o[15] O
wbs_dat_o[16] O
wbs_dat_o[17] O
wbs_dat_o[18] O
wbs_dat_o[19] O
wbs_dat_o[1] O
wbs_dat_o[20] O
wbs_dat_o[21] O
wbs_dat_o[22] O
wbs_dat_o[23] O
wbs_dat_o[24] O
wbs_dat_o[25] O
wbs_dat_o[26] O
wbs_dat_o[27] O
wbs_dat_o[28] O
wbs_dat_o[29] O
wbs_dat_o[2] O
wbs_dat_o[30] O
wbs_dat_o[31] O
wbs_dat_o[3] O
wbs_dat_o[4] O
wbs_dat_o[5] O
wbs_dat_o[6] O
wbs_dat_o[7] O
wbs_dat_o[8] O
wbs_dat_o[9] O
wbs_sel_i[0] I
wbs_sel_i[1] I
wbs_sel_i[2] I
wbs_sel_i[3] I
wbs_stb_i I
wbs_we_i I

*D_NET *1 0.00928288
*CONN
*P io_in[0] I
*I *419:io_in[0] I *D rift2Wrap
*CAP
1 io_in[0] 0.00464144
2 *419:io_in[0] 0.00464144
*RES
1 io_in[0] *419:io_in[0] 41.376 
*END

*D_NET *2 0.0179927
*CONN
*P io_in[10] I
*I *419:io_in[10] I *D rift2Wrap
*CAP
1 io_in[10] 0.00434041
2 *419:io_in[10] 0.000710124
3 *2:9 0.00505053
4 *2:9 *76:9 0.00215008
5 *2:9 *78:11 0.00574153
*RES
1 io_in[10] *2:9 46.414 
2 *2:9 *419:io_in[10] 9.554 
*END

*D_NET *3 0.0121022
*CONN
*P io_in[11] I
*I *419:io_in[11] I *D rift2Wrap
*CAP
1 io_in[11] 0.00435778
2 *419:io_in[11] 0.0016933
3 *3:11 0.00605108
*RES
1 io_in[11] *3:11 39.818 
2 *3:11 *419:io_in[11] 11.59 
*END

*D_NET *4 0.0122533
*CONN
*P io_in[12] I
*I *419:io_in[12] I *D rift2Wrap
*CAP
1 io_in[12] 0.00515255
2 *419:io_in[12] 0.00515255
3 *419:io_in[12] io_oeb[11] 0
4 *419:io_in[12] *80:11 0.00194815
*RES
1 io_in[12] *419:io_in[12] 46.848 
*END

*D_NET *5 0.0102276
*CONN
*P io_in[13] I
*I *419:io_in[13] I *D rift2Wrap
*CAP
1 io_in[13] 0.00510819
2 *419:io_in[13] 0.00510819
3 *419:io_in[13] io_out[13] 1.11751e-05
*RES
1 io_in[13] *419:io_in[13] 42.288 
*END

*D_NET *6 0.00893339
*CONN
*P io_in[14] I
*I *419:io_in[14] I *D rift2Wrap
*CAP
1 io_in[14] 0.0044667
2 *419:io_in[14] 0.0044667
*RES
1 io_in[14] *419:io_in[14] 37.728 
*END

*D_NET *7 0.0163771
*CONN
*P io_in[15] I
*I *419:io_in[15] I *D rift2Wrap
*CAP
1 io_in[15] 0.00568009
2 *419:io_in[15] 0.00100122
3 *7:9 0.00668131
4 *7:9 *83:11 0.00301453
*RES
1 io_in[15] *7:9 48.846 
2 *7:9 *419:io_in[15] 11.226 
*END

*D_NET *8 0.0134876
*CONN
*P io_in[16] I
*I *419:io_in[16] I *D rift2Wrap
*CAP
1 io_in[16] 0.00572976
2 *419:io_in[16] 0.00101403
3 *8:11 0.00674379
*RES
1 io_in[16] *8:11 49.85 
2 *8:11 *419:io_in[16] 6.726 
*END

*D_NET *9 0.0127213
*CONN
*P io_in[17] I
*I *419:io_in[17] I *D rift2Wrap
*CAP
1 io_in[17] 0.00526879
2 *419:io_in[17] 0.000866809
3 *9:11 0.0061356
4 *419:io_in[17] io_out[17] 0.00045009
*RES
1 io_in[17] *9:11 46.354 
2 *9:11 *419:io_in[17] 6.726 
*END

*D_NET *10 0.0115355
*CONN
*P io_in[18] I
*I *419:io_in[18] I *D rift2Wrap
*CAP
1 io_in[18] 0.00576774
2 *419:io_in[18] 0.00576774
*RES
1 io_in[18] *419:io_in[18] 49.584 
*END

*D_NET *11 0.0105862
*CONN
*P io_in[19] I
*I *419:io_in[19] I *D rift2Wrap
*CAP
1 io_in[19] 0.00529308
2 *419:io_in[19] 0.00529308
*RES
1 io_in[19] *419:io_in[19] 46.088 
*END

*D_NET *12 0.00638331
*CONN
*P io_in[1] I
*I *419:io_in[1] I *D rift2Wrap
*CAP
1 io_in[1] 0.00319165
2 *419:io_in[1] 0.00319165
*RES
1 io_in[1] *419:io_in[1] 31.04 
*END

*D_NET *13 0.00947267
*CONN
*P io_in[20] I
*I *419:io_in[20] I *D rift2Wrap
*CAP
1 io_in[20] 0.00473633
2 *419:io_in[20] 0.00473633
*RES
1 io_in[20] *419:io_in[20] 42.592 
*END

*D_NET *14 0.00852335
*CONN
*P io_in[21] I
*I *419:io_in[21] I *D rift2Wrap
*CAP
1 io_in[21] 0.00426167
2 *419:io_in[21] 0.00426167
*RES
1 io_in[21] *419:io_in[21] 39.096 
*END

*D_NET *15 0.00757403
*CONN
*P io_in[22] I
*I *419:io_in[22] I *D rift2Wrap
*CAP
1 io_in[22] 0.00378701
2 *419:io_in[22] 0.00378701
*RES
1 io_in[22] *419:io_in[22] 35.6 
*END

*D_NET *16 0.00662471
*CONN
*P io_in[23] I
*I *419:io_in[23] I *D rift2Wrap
*CAP
1 io_in[23] 0.00331236
2 *419:io_in[23] 0.00331236
*RES
1 io_in[23] *419:io_in[23] 32.104 
*END

*D_NET *17 0.014553
*CONN
*P io_in[24] I
*I *419:io_in[24] I *D rift2Wrap
*CAP
1 io_in[24] 0.00502522
2 *419:io_in[24] 0.00502522
3 *419:io_in[24] io_out[24] 0.00450259
*RES
1 io_in[24] *419:io_in[24] 49.584 
*END

*D_NET *18 0.0143745
*CONN
*P io_in[25] I
*I *419:io_in[25] I *D rift2Wrap
*CAP
1 io_in[25] 0.00499338
2 *419:io_in[25] 0.00499338
3 *419:io_in[25] io_out[25] 0.00438775
*RES
1 io_in[25] *419:io_in[25] 49.28 
*END

*D_NET *19 0.014165
*CONN
*P io_in[26] I
*I *419:io_in[26] I *D rift2Wrap
*CAP
1 io_in[26] 0.00492598
2 *419:io_in[26] 0.00492598
3 *419:io_in[26] io_out[26] 0.00431304
*RES
1 io_in[26] *419:io_in[26] 48.976 
*END

*D_NET *20 0.0143621
*CONN
*P io_in[27] I
*I *419:io_in[27] I *D rift2Wrap
*CAP
1 io_in[27] 0.00714314
2 *419:io_in[27] 0.00714314
3 *419:io_in[27] io_oeb[26] 7.57783e-05
*RES
1 io_in[27] *419:io_in[27] 48.672 
*END

*D_NET *21 0.0142047
*CONN
*P io_in[28] I
*I *419:io_in[28] I *D rift2Wrap
*CAP
1 io_in[28] 0.00708377
2 *419:io_in[28] 0.00708377
3 *419:io_in[28] io_oeb[27] 3.71519e-05
*RES
1 io_in[28] *419:io_in[28] 48.368 
*END

*D_NET *22 0.0136167
*CONN
*P io_in[29] I
*I *419:io_in[29] I *D rift2Wrap
*CAP
1 io_in[29] 0.00680836
2 *419:io_in[29] 0.00680836
*RES
1 io_in[29] *419:io_in[29] 48.064 
*END

*D_NET *23 0.00735217
*CONN
*P io_in[2] I
*I *419:io_in[2] I *D rift2Wrap
*CAP
1 io_in[2] 0.00367608
2 *419:io_in[2] 0.00367608
*RES
1 io_in[2] *419:io_in[2] 34.08 
*END

*D_NET *24 0.0133686
*CONN
*P io_in[30] I
*I *419:io_in[30] I *D rift2Wrap
*CAP
1 io_in[30] 0.00481767
2 *419:io_in[30] 0.00481767
3 *419:io_in[30] io_out[30] 0.00373322
*RES
1 io_in[30] *419:io_in[30] 47.76 
*END

*D_NET *25 0.0132251
*CONN
*P io_in[31] I
*I *419:io_in[31] I *D rift2Wrap
*CAP
1 io_in[31] 0.00480337
2 *419:io_in[31] 0.00480337
3 *419:io_in[31] io_out[31] 0.00361837
*RES
1 io_in[31] *419:io_in[31] 47.456 
*END

*D_NET *26 0.0132861
*CONN
*P io_in[32] I
*I *419:io_in[32] I *D rift2Wrap
*CAP
1 io_in[32] 0.00664305
2 *419:io_in[32] 0.00664305
*RES
1 io_in[32] *419:io_in[32] 47.152 
*END

*D_NET *27 0.0131759
*CONN
*P io_in[33] I
*I *419:io_in[33] I *D rift2Wrap
*CAP
1 io_in[33] 0.00658795
2 *419:io_in[33] 0.00658795
*RES
1 io_in[33] *419:io_in[33] 46.848 
*END

*D_NET *28 0.0130657
*CONN
*P io_in[34] I
*I *419:io_in[34] I *D rift2Wrap
*CAP
1 io_in[34] 0.00653284
2 *419:io_in[34] 0.00653284
*RES
1 io_in[34] *419:io_in[34] 46.544 
*END

*D_NET *29 0.0104921
*CONN
*P io_in[35] I
*I *419:io_in[35] I *D rift2Wrap
*CAP
1 io_in[35] 0.00524605
2 *419:io_in[35] 0.00524605
*RES
1 io_in[35] *419:io_in[35] 46.24 
*END

*D_NET *30 0.00642979
*CONN
*P io_in[36] I
*I *419:io_in[36] I *D rift2Wrap
*CAP
1 io_in[36] 0.0032149
2 *419:io_in[36] 0.0032149
*RES
1 io_in[36] *419:io_in[36] 31.648 
*END

*D_NET *31 0.00377567
*CONN
*P io_in[37] I
*I *419:io_in[37] I *D rift2Wrap
*CAP
1 io_in[37] 0.00188783
2 *419:io_in[37] 0.00188783
*RES
1 io_in[37] *419:io_in[37] 22.072 
*END

*D_NET *32 0.0105429
*CONN
*P io_in[3] I
*I *419:io_in[3] I *D rift2Wrap
*CAP
1 io_in[3] 0.00487443
2 *419:io_in[3] 0.00487443
3 *419:io_in[3] io_out[3] 0.00079408
*RES
1 io_in[3] *419:io_in[3] 44.112 
*END

*D_NET *33 0.0156511
*CONN
*P io_in[4] I
*I *419:io_in[4] I *D rift2Wrap
*CAP
1 io_in[4] 0.00447905
2 *419:io_in[4] 0.000655179
3 *33:11 0.00513423
4 *33:11 *70:11 0.00356162
5 *33:11 *109:11 0.00182102
*RES
1 io_in[4] *33:11 49.394 
2 *33:11 *419:io_in[4] 4.75 
*END

*D_NET *34 0.0289283
*CONN
*P io_in[5] I
*I *419:io_in[5] I *D rift2Wrap
*CAP
1 io_in[5] 0.0020643
2 *419:io_in[5] 0.00245254
3 *34:7 0.00451684
4 *419:io_in[5] *71:11 0.0077263
5 *419:io_in[5] *72:11 0.00304133
6 *419:io_in[5] *110:9 0.00912702
*RES
1 io_in[5] *34:7 18.218 
2 *34:7 *419:io_in[5] 45.958 
*END

*D_NET *35 0.0184595
*CONN
*P io_in[6] I
*I *419:io_in[6] I *D rift2Wrap
*CAP
1 io_in[6] 0.00104681
2 *419:io_in[6] 0.00170697
3 *35:9 0.00818292
4 *35:7 0.00752277
*RES
1 io_in[6] *35:7 11.53 
2 *35:7 *35:9 46.588 
3 *35:9 *419:io_in[6] 16.09 
*END

*D_NET *36 0.0276045
*CONN
*P io_in[7] I
*I *419:io_in[7] I *D rift2Wrap
*CAP
1 io_in[7] 0.00206429
2 *419:io_in[7] 0.000689499
3 *36:11 0.00405759
4 *36:7 0.00543238
5 *36:11 *73:9 0.0100173
6 *36:11 *74:9 0.00534346
*RES
1 io_in[7] *36:7 18.218 
2 *36:7 *36:11 46.528 
3 *36:11 *419:io_in[7] 4.902 
*END

*D_NET *37 0.0301204
*CONN
*P io_in[8] I
*I *419:io_in[8] I *D rift2Wrap
*CAP
1 io_in[8] 0.0020643
2 *419:io_in[8] 0.00245334
3 *37:7 0.00451764
4 *419:io_in[8] *74:9 0.00809382
5 *419:io_in[8] *75:11 0.00348691
6 *419:io_in[8] *113:11 0.00950434
*RES
1 io_in[8] *37:7 18.218 
2 *37:7 *419:io_in[8] 46.87 
*END

*D_NET *38 0.0149318
*CONN
*P io_in[9] I
*I *419:io_in[9] I *D rift2Wrap
*CAP
1 io_in[9] 0.00577262
2 *419:io_in[9] 0.0016933
3 *38:11 0.00746592
*RES
1 io_in[9] *38:11 48.938 
2 *38:11 *419:io_in[9] 11.59 
*END

*D_NET *39 0.00761252
*CONN
*P io_oeb[0] O
*I *419:io_oeb[0] O *D rift2Wrap
*CAP
1 io_oeb[0] 0.00380626
2 *419:io_oeb[0] 0.00380626
*RES
1 *419:io_oeb[0] io_oeb[0] 34.384 
*END

*D_NET *40 0.020115
*CONN
*P io_oeb[10] O
*I *419:io_oeb[10] O *D rift2Wrap
*CAP
1 io_oeb[10] 0.00208493
2 *419:io_oeb[10] 0.00440323
3 *40:11 0.00648816
4 *40:11 *78:11 0.00713867
*RES
1 *419:io_oeb[10] *40:11 48.938 
2 *40:11 io_oeb[10] 13.87 
*END

*D_NET *41 0.0174016
*CONN
*P io_oeb[11] O
*I *419:io_oeb[11] O *D rift2Wrap
*CAP
1 io_oeb[11] 0.00208493
2 *419:io_oeb[11] 0.00400157
3 *41:11 0.0060865
4 *41:11 *79:11 0.00522861
5 *419:io_in[12] io_oeb[11] 0
*RES
1 *419:io_oeb[11] *41:11 44.226 
2 *41:11 io_oeb[11] 13.87 
*END

*D_NET *42 0.0129653
*CONN
*P io_oeb[12] O
*I *419:io_oeb[12] O *D rift2Wrap
*CAP
1 io_oeb[12] 0.00207126
2 *419:io_oeb[12] 0.0044114
3 *42:11 0.00648265
*RES
1 *419:io_oeb[12] *42:11 39.666 
2 *42:11 io_oeb[12] 13.87 
*END

*D_NET *43 0.0112884
*CONN
*P io_oeb[13] O
*I *419:io_oeb[13] O *D rift2Wrap
*CAP
1 io_oeb[13] 0.0056442
2 *419:io_oeb[13] 0.0056442
*RES
1 *419:io_oeb[13] io_oeb[13] 48.976 
*END

*D_NET *44 0.0102103
*CONN
*P io_oeb[14] O
*I *419:io_oeb[14] O *D rift2Wrap
*CAP
1 io_oeb[14] 0.00510515
2 *419:io_oeb[14] 0.00510515
*RES
1 *419:io_oeb[14] io_oeb[14] 44.416 
*END

*D_NET *45 0.00984321
*CONN
*P io_oeb[15] O
*I *419:io_oeb[15] O *D rift2Wrap
*CAP
1 io_oeb[15] 0.0049216
2 *419:io_oeb[15] 0.0049216
3 io_oeb[15] *83:11 0
*RES
1 *419:io_oeb[15] io_oeb[15] 43.352 
*END

*D_NET *46 0.00892125
*CONN
*P io_oeb[16] O
*I *419:io_oeb[16] O *D rift2Wrap
*CAP
1 io_oeb[16] 0.00446063
2 *419:io_oeb[16] 0.00446063
*RES
1 *419:io_oeb[16] io_oeb[16] 39.856 
*END

*D_NET *47 0.00782168
*CONN
*P io_oeb[17] O
*I *419:io_oeb[17] O *D rift2Wrap
*CAP
1 io_oeb[17] 0.00391084
2 *419:io_oeb[17] 0.00391084
*RES
1 *419:io_oeb[17] io_oeb[17] 36.512 
*END

*D_NET *48 0.00683108
*CONN
*P io_oeb[18] O
*I *419:io_oeb[18] O *D rift2Wrap
*CAP
1 io_oeb[18] 0.00341554
2 *419:io_oeb[18] 0.00341554
*RES
1 *419:io_oeb[18] io_oeb[18] 32.864 
*END

*D_NET *49 0.00588177
*CONN
*P io_oeb[19] O
*I *419:io_oeb[19] O *D rift2Wrap
*CAP
1 io_oeb[19] 0.00294088
2 *419:io_oeb[19] 0.00294088
*RES
1 *419:io_oeb[19] io_oeb[19] 29.368 
*END

*D_NET *50 0.00672444
*CONN
*P io_oeb[1] O
*I *419:io_oeb[1] O *D rift2Wrap
*CAP
1 io_oeb[1] 0.00336222
2 *419:io_oeb[1] 0.00336222
*RES
1 *419:io_oeb[1] io_oeb[1] 30.736 
*END

*D_NET *51 0.00493245
*CONN
*P io_oeb[20] O
*I *419:io_oeb[20] O *D rift2Wrap
*CAP
1 io_oeb[20] 0.00246623
2 *419:io_oeb[20] 0.00246623
*RES
1 *419:io_oeb[20] io_oeb[20] 25.872 
*END

*D_NET *52 0.00404983
*CONN
*P io_oeb[21] O
*I *419:io_oeb[21] O *D rift2Wrap
*CAP
1 io_oeb[21] 0.00202492
2 *419:io_oeb[21] 0.00202492
*RES
1 *419:io_oeb[21] io_oeb[21] 13.984 
*END

*D_NET *53 0.00509755
*CONN
*P io_oeb[22] O
*I *419:io_oeb[22] O *D rift2Wrap
*CAP
1 io_oeb[22] 0.00254877
2 *419:io_oeb[22] 0.00254877
*RES
1 *419:io_oeb[22] io_oeb[22] 26.48 
*END

*D_NET *54 0.00604687
*CONN
*P io_oeb[23] O
*I *419:io_oeb[23] O *D rift2Wrap
*CAP
1 io_oeb[23] 0.00302343
2 *419:io_oeb[23] 0.00302343
*RES
1 *419:io_oeb[23] io_oeb[23] 29.976 
*END

*D_NET *55 0.0108235
*CONN
*P io_oeb[24] O
*I *419:io_oeb[24] O *D rift2Wrap
*CAP
1 io_oeb[24] 0.00541174
2 *419:io_oeb[24] 0.00541174
*RES
1 *419:io_oeb[24] io_oeb[24] 39.856 
*END

*D_NET *56 0.0105764
*CONN
*P io_oeb[25] O
*I *419:io_oeb[25] O *D rift2Wrap
*CAP
1 io_oeb[25] 0.00528822
2 *419:io_oeb[25] 0.00528822
*RES
1 *419:io_oeb[25] io_oeb[25] 39.552 
*END

*D_NET *57 0.00919837
*CONN
*P io_oeb[26] O
*I *419:io_oeb[26] O *D rift2Wrap
*CAP
1 io_oeb[26] 0.0045613
2 *419:io_oeb[26] 0.0045613
3 *419:io_in[27] io_oeb[26] 7.57783e-05
*RES
1 *419:io_oeb[26] io_oeb[26] 39.248 
*END

*D_NET *58 0.00897576
*CONN
*P io_oeb[27] O
*I *419:io_oeb[27] O *D rift2Wrap
*CAP
1 io_oeb[27] 0.0044693
2 *419:io_oeb[27] 0.0044693
3 *419:io_in[28] io_oeb[27] 3.71519e-05
*RES
1 *419:io_oeb[27] io_oeb[27] 38.944 
*END

*D_NET *59 0.00887304
*CONN
*P io_oeb[28] O
*I *419:io_oeb[28] O *D rift2Wrap
*CAP
1 io_oeb[28] 0.00443652
2 *419:io_oeb[28] 0.00443652
*RES
1 *419:io_oeb[28] io_oeb[28] 38.64 
*END

*D_NET *60 0.0101356
*CONN
*P io_oeb[29] O
*I *419:io_oeb[29] O *D rift2Wrap
*CAP
1 io_oeb[29] 0.0050678
2 *419:io_oeb[29] 0.0050678
*RES
1 *419:io_oeb[29] io_oeb[29] 38.336 
*END

*D_NET *61 0.00907732
*CONN
*P io_oeb[2] O
*I *419:io_oeb[2] O *D rift2Wrap
*CAP
1 io_oeb[2] 0.00453866
2 *419:io_oeb[2] 0.00453866
*RES
1 *419:io_oeb[2] io_oeb[2] 40.768 
*END

*D_NET *62 0.0100254
*CONN
*P io_oeb[30] O
*I *419:io_oeb[30] O *D rift2Wrap
*CAP
1 io_oeb[30] 0.0050127
2 *419:io_oeb[30] 0.0050127
*RES
1 *419:io_oeb[30] io_oeb[30] 38.032 
*END

*D_NET *63 0.0103629
*CONN
*P io_oeb[31] O
*I *419:io_oeb[31] O *D rift2Wrap
*CAP
1 io_oeb[31] 0.00518145
2 *419:io_oeb[31] 0.00518145
*RES
1 *419:io_oeb[31] io_oeb[31] 37.728 
*END

*D_NET *64 0.0102278
*CONN
*P io_oeb[32] O
*I *419:io_oeb[32] O *D rift2Wrap
*CAP
1 io_oeb[32] 0.0051139
2 *419:io_oeb[32] 0.0051139
*RES
1 *419:io_oeb[32] io_oeb[32] 37.424 
*END

*D_NET *65 0.00901965
*CONN
*P io_oeb[33] O
*I *419:io_oeb[33] O *D rift2Wrap
*CAP
1 io_oeb[33] 0.00382795
2 *419:io_oeb[33] 0.00382795
3 io_oeb[33] io_out[33] 0.00136375
*RES
1 *419:io_oeb[33] io_oeb[33] 37.12 
*END

*D_NET *66 0.00867614
*CONN
*P io_oeb[34] O
*I *419:io_oeb[34] O *D rift2Wrap
*CAP
1 io_oeb[34] 0.00372031
2 *419:io_oeb[34] 0.00372031
3 io_oeb[34] io_out[34] 0.00123552
*RES
1 *419:io_oeb[34] io_oeb[34] 36.816 
*END

*D_NET *67 0.00774175
*CONN
*P io_oeb[35] O
*I *419:io_oeb[35] O *D rift2Wrap
*CAP
1 io_oeb[35] 0.00387087
2 *419:io_oeb[35] 0.00387087
*RES
1 *419:io_oeb[35] io_oeb[35] 36.512 
*END

*D_NET *68 0.00381023
*CONN
*P io_oeb[36] O
*I *419:io_oeb[36] O *D rift2Wrap
*CAP
1 io_oeb[36] 0.00190512
2 *419:io_oeb[36] 0.00190512
*RES
1 *419:io_oeb[36] io_oeb[36] 21.92 
*END

*D_NET *69 0.00758264
*CONN
*P io_oeb[37] O
*I *419:io_oeb[37] O *D rift2Wrap
*CAP
1 io_oeb[37] 0.00379132
2 *419:io_oeb[37] 0.00379132
*RES
1 *419:io_oeb[37] io_oeb[37] 31.648 
*END

*D_NET *70 0.0142809
*CONN
*P io_oeb[3] O
*I *419:io_oeb[3] O *D rift2Wrap
*CAP
1 io_oeb[3] 0.00205062
2 *419:io_oeb[3] 0.00330902
3 *70:11 0.00535964
4 *33:11 *70:11 0.00356162
*RES
1 *419:io_oeb[3] *70:11 37.082 
2 *70:11 io_oeb[3] 13.718 
*END

*D_NET *71 0.0241865
*CONN
*P io_oeb[4] O
*I *419:io_oeb[4] O *D rift2Wrap
*CAP
1 io_oeb[4] 0.00202998
2 *419:io_oeb[4] 0.00301549
3 *71:11 0.00504547
4 *71:11 *109:11 0.00636929
5 *419:io_in[5] *71:11 0.0077263
*RES
1 *419:io_oeb[4] *71:11 47.266 
2 *71:11 io_oeb[4] 13.566 
*END

*D_NET *72 0.0211838
*CONN
*P io_oeb[5] O
*I *419:io_oeb[5] O *D rift2Wrap
*CAP
1 io_oeb[5] 0.00205732
2 *419:io_oeb[5] 0.000723819
3 *72:11 0.00646436
4 *72:7 0.00513085
5 *72:11 *110:9 0.00376615
6 *419:io_in[5] *72:11 0.00304133
*RES
1 *419:io_oeb[5] *72:7 9.554 
2 *72:7 *72:11 47.896 
3 *72:11 io_oeb[5] 13.566 
*END

*D_NET *73 0.0269608
*CONN
*P io_oeb[6] O
*I *419:io_oeb[6] O *D rift2Wrap
*CAP
1 io_oeb[6] 0.00209861
2 *419:io_oeb[6] 0.000655179
3 *73:9 0.00781659
4 *73:7 0.00637316
5 *36:11 *73:9 0.0100173
*RES
1 *419:io_oeb[6] *73:7 9.25 
2 *73:7 *73:9 53.276 
3 *73:9 io_oeb[6] 18.37 
*END

*D_NET *74 0.0280344
*CONN
*P io_oeb[7] O
*I *419:io_oeb[7] O *D rift2Wrap
*CAP
1 io_oeb[7] 0.00209862
2 *419:io_oeb[7] 0.000655179
3 *74:9 0.0066434
4 *74:7 0.00519996
5 *419:io_in[8] *74:9 0.00809382
6 *36:11 *74:9 0.00534346
*RES
1 *419:io_oeb[7] *74:7 9.25 
2 *74:7 *74:9 48.716 
3 *74:9 io_oeb[7] 18.37 
*END

*D_NET *75 0.0214761
*CONN
*P io_oeb[8] O
*I *419:io_oeb[8] O *D rift2Wrap
*CAP
1 io_oeb[8] 0.00207522
2 *419:io_oeb[8] 0.000655179
3 *75:11 0.00641231
4 *75:7 0.00499227
5 io_oeb[8] *114:9 6.31714e-05
6 *75:11 *113:11 0.00372477
7 *75:11 *114:9 6.62347e-05
8 *419:io_in[8] *75:11 0.00348691
*RES
1 *419:io_oeb[8] *75:7 9.25 
2 *75:7 *75:11 48.656 
3 *75:11 io_oeb[8] 13.87 
*END

*D_NET *76 0.0190716
*CONN
*P io_oeb[9] O
*I *419:io_oeb[9] O *D rift2Wrap
*CAP
1 io_oeb[9] 0.00208493
2 *419:io_oeb[9] 0.00411677
3 *76:9 0.0062017
4 *76:9 *114:9 0.00451817
5 *2:9 *76:9 0.00215008
*RES